#======================================================================
# CRYSTAL DATA (generated from VESTA)
#----------------------------------------------------------------------
data_VESTA_phase_1

_chemical_name_common                  'unknown system'
_cell_length_a                         11.632905
_cell_length_b                         11.632905
_cell_length_c                         9.569502
_cell_angle_alpha                      90.000000
_cell_angle_beta                       90.000000
_cell_angle_gamma                      90.000000
_space_group_name_H-M_alt              'P 1'
_space_group_IT_number                 1

loop_
_space_group_symop_operation_xyz
   'x, y, z'

loop_
   _atom_site_label
   _atom_site_occupancy
   _atom_site_fract_x
   _atom_site_fract_y
   _atom_site_fract_z
   _atom_site_adp_type
   _atom_site_U_iso_or_equiv
   _atom_site_type_symbol
   Ti1         1.000     0.000023     0.999224     0.998960    Uiso  ? Ti
   Ti2         1.000     0.000185     0.333643     0.998951    Uiso  ? Ti
   Ti3         1.000     0.999702     0.666402     0.000080    Uiso  ? Ti
   Ti4         1.000     0.333553     0.999253     0.998894    Uiso  ? Ti
   Ti5         1.000     0.333575     0.333721     0.998911    Uiso  ? Ti
   Ti6         1.000     0.333644     0.666456     0.000103    Uiso  ? Ti
   Ti7         1.000     0.666805     0.999592     0.999941    Uiso  ? Ti
   Ti8         1.000     0.666838     0.333675     0.000034    Uiso  ? Ti
   Ti9         1.000     0.666679     0.666636     0.000103    Uiso  ? Ti
   Ti10        1.000     0.166950     0.166586     0.507262    Uiso  ? Ti
   Ti11        1.000     0.166843     0.500650     0.499747    Uiso  ? Ti
   Ti12        1.000     0.166774     0.832580     0.499714    Uiso  ? Ti
   Ti13        1.000     0.500271     0.166757     0.502671    Uiso  ? Ti
   Ti14        1.000     0.500290     0.500184     0.499944    Uiso  ? Ti
   Ti15        1.000     0.500213     0.833288     0.499932    Uiso  ? Ti
   Ti16        1.000     0.833604     0.166892     0.502774    Uiso  ? Ti
   Ti17        1.000     0.833380     0.500252     0.499933    Uiso  ? Ti
   Ti18        1.000     0.833328     0.833365     0.499910    Uiso  ? Ti
   Ti19        1.000     0.991270     0.166449     0.246069    Uiso  ? Ti
   Ti20        1.000     0.000329     0.500286     0.250737    Uiso  ? Ti
   Ti21        1.000     0.000210     0.832563     0.250702    Uiso  ? Ti
   Ti22        1.000     0.342624     0.166482     0.245918    Uiso  ? Ti
   Ti23        1.000     0.333370     0.500347     0.250742    Uiso  ? Ti
   Ti24        1.000     0.333325     0.832629     0.250696    Uiso  ? Ti
   Ti25        1.000     0.666975     0.166629     0.249137    Uiso  ? Ti
   Ti26        1.000     0.666834     0.499928     0.249829    Uiso  ? Ti
   Ti27        1.000     0.666777     0.833336     0.249836    Uiso  ? Ti
   Ti28        1.000     0.166785     0.997985     0.750695    Uiso  ? Ti
   Ti29        1.000     0.166849     0.335162     0.750603    Uiso  ? Ti
   Ti30        1.000     0.166681     0.666569     0.751040    Uiso  ? Ti
   Ti31        1.000     0.500387     0.999339     0.750184    Uiso  ? Ti
   Ti32        1.000     0.500441     0.334092     0.750248    Uiso  ? Ti
   Ti33        1.000     0.500168     0.666726     0.750121    Uiso  ? Ti
   Ti34        1.000     0.833190     0.999412     0.750174    Uiso  ? Ti
   Ti35        1.000     0.833222     0.334190     0.750350    Uiso  ? Ti
   Ti36        1.000     0.833176     0.666817     0.750088    Uiso  ? Ti
   O1          1.000     0.000289     0.500055     0.459282    Uiso  ? O
   O2          1.000     0.000240     0.833121     0.459252    Uiso  ? O
   O3          1.000     0.331549     0.166744     0.454411    Uiso  ? O
   O4          1.000     0.333384     0.500094     0.459283    Uiso  ? O
   O5          1.000     0.333305     0.833129     0.459240    Uiso  ? O
   O6          1.000     0.666930     0.166741     0.459795    Uiso  ? O
   O7          1.000     0.666833     0.499955     0.458708    Uiso  ? O
   O8          1.000     0.666774     0.833834     0.458757    Uiso  ? O
   O9          1.000     0.166772     0.000597     0.959013    Uiso  ? O
   O10         1.000     0.166850     0.332269     0.958907    Uiso  ? O
   O11         1.000     0.166675     0.666365     0.959742    Uiso  ? O
   O12         1.000     0.500100     0.998894     0.959129    Uiso  ? O
   O13         1.000     0.500115     0.334247     0.959203    Uiso  ? O
   O14         1.000     0.499978     0.666569     0.959076    Uiso  ? O
   O15         1.000     0.833483     0.998924     0.959104    Uiso  ? O
   O16         1.000     0.833561     0.334221     0.959282    Uiso  ? O
   O17         1.000     0.833386     0.666609     0.959045    Uiso  ? O
   O18         1.000     0.328478     0.001267     0.209948    Uiso  ? O
   O19         1.000     0.328112     0.331665     0.209963    Uiso  ? O
   O20         1.000     0.333095     0.666487     0.209518    Uiso  ? O
   O21         1.000     0.667017     0.000299     0.208858    Uiso  ? O
   O22         1.000     0.666829     0.332961     0.208895    Uiso  ? O
   O23         1.000     0.666743     0.666621     0.209487    Uiso  ? O
   O24         1.000     0.004991     0.001210     0.210047    Uiso  ? O
   O25         1.000     0.005819     0.331625     0.210013    Uiso  ? O
   O26         1.000     0.000432     0.666424     0.209485    Uiso  ? O
   O27         1.000     0.166917     0.166572     0.709858    Uiso  ? O
   O28         1.000     0.166734     0.499975     0.709170    Uiso  ? O
   O29         1.000     0.166732     0.833185     0.709150    Uiso  ? O
   O30         1.000     0.499293     0.166725     0.709532    Uiso  ? O
   O31         1.000     0.500251     0.500091     0.708856    Uiso  ? O
   O32         1.000     0.500205     0.833360     0.708836    Uiso  ? O
   O33         1.000     0.834255     0.166809     0.709629    Uiso  ? O
   O34         1.000     0.833225     0.500180     0.708875    Uiso  ? O
   O35         1.000     0.833158     0.833444     0.708811    Uiso  ? O
   O36         1.000     0.995052     0.166435     0.038975    Uiso  ? O
   O37         1.000     0.999275     0.499412     0.041992    Uiso  ? O
   O38         1.000     0.999310     0.833441     0.041977    Uiso  ? O
   O39         1.000     0.338677     0.166481     0.038810    Uiso  ? O
   O40         1.000     0.334196     0.499478     0.042002    Uiso  ? O
   O41         1.000     0.334119     0.833472     0.041967    Uiso  ? O
   O42         1.000     0.666852     0.166621     0.040932    Uiso  ? O
   O43         1.000     0.666772     0.500018     0.041175    Uiso  ? O
   O44         1.000     0.666704     0.833255     0.041180    Uiso  ? O
   O45         1.000     0.166826     0.000452     0.540352    Uiso  ? O
   O46         1.000     0.166973     0.332724     0.540345    Uiso  ? O
   O47         1.000     0.166774     0.666590     0.541692    Uiso  ? O
   O48         1.000     0.499173     0.000392     0.541160    Uiso  ? O
   O49         1.000     0.499385     0.333080     0.541207    Uiso  ? O
   O50         1.000     0.500077     0.666735     0.540810    Uiso  ? O
   O51         1.000     0.834585     0.000494     0.541148    Uiso  ? O
   O52         1.000     0.834335     0.333169     0.541313    Uiso  ? O
   O53         1.000     0.833475     0.666796     0.540782    Uiso  ? O
   O54         1.000     0.333195     0.999392     0.790867    Uiso  ? O
   O55         1.000     0.333258     0.333853     0.790858    Uiso  ? O
   O56         1.000     0.333241     0.666609     0.791504    Uiso  ? O
   O57         1.000     0.666783     0.000480     0.790731    Uiso  ? O
   O58         1.000     0.666829     0.333118     0.790872    Uiso  ? O
   O59         1.000     0.666674     0.666808     0.791132    Uiso  ? O
   O60         1.000     0.000363     0.999469     0.790896    Uiso  ? O
   O61         1.000     0.000410     0.333798     0.790897    Uiso  ? O
   O62         1.000     0.000120     0.666663     0.791467    Uiso  ? O
   O63         1.000     0.002341     0.166872     0.454573    Uiso  ? O
   O64         1.000     0.166841     0.500712     0.291390    Uiso  ? O
   O65         1.000     0.166764     0.832480     0.291308    Uiso  ? O
   O66         1.000     0.502166     0.166592     0.291468    Uiso  ? O
   O67         1.000     0.499739     0.498301     0.290695    Uiso  ? O
   O68         1.000     0.499712     0.834768     0.290697    Uiso  ? O
   O69         1.000     0.831728     0.166851     0.291617    Uiso  ? O
   O70         1.000     0.833922     0.498226     0.290686    Uiso  ? O
   O71         1.000     0.833828     0.834601     0.290709    Uiso  ? O
   STH         1.000     0.166936     0.165900     0.276826    Uiso  ? Ho

loop_
   _atom_site_moment_label
   _atom_site_moment_crystalaxis_x
   _atom_site_moment_crystalaxis_y
   _atom_site_moment_crystalaxis_z
   Ti1            0.000000     0.000000     0.000000
   Ti2            0.000000     0.000000     0.000000
   Ti3            0.000000     0.000000     0.000000
   Ti4            0.000000     0.000000     0.000000
   Ti5            0.000000     0.000000     0.000000
   Ti6            0.000000     0.000000     0.000000
   Ti7            0.000000     0.000000     0.000000
   Ti8            0.000000     0.000000     0.000000
   Ti9            0.000000     0.000000     0.000000
   Ti10           0.004421    -0.001047     0.726517
   Ti11           0.000000     0.000000     0.000000
   Ti12           0.000000     0.000000     0.000000
   Ti13           0.000000     0.000000     0.000000
   Ti14           0.000000     0.000000     0.000000
   Ti15           0.000000     0.000000     0.000000
   Ti16           0.000000     0.000000     0.000000
   Ti17           0.000000     0.000000     0.000000
   Ti18           0.000000     0.000000     0.000000
   Ti19          -1.043355    -0.003955    -0.368617
   Ti20           0.000000     0.000000     0.000000
   Ti21           0.000000     0.000000     0.000000
   Ti22           1.051498     0.000582    -0.379909
   Ti23           0.000000     0.000000     0.000000
   Ti24           0.000000     0.000000     0.000000
   Ti25           0.000000     0.000000     0.000000
   Ti26           0.000000     0.000000     0.000000
   Ti27           0.000000     0.000000     0.000000
   Ti28           0.000000     0.000000     0.000000
   Ti29           0.000000     0.000000     0.000000
   Ti30           0.000000     0.000000     0.000000
   Ti31           0.000000     0.000000     0.000000
   Ti32           0.000000     0.000000     0.000000
   Ti33           0.000000     0.000000     0.000000
   Ti34           0.000000     0.000000     0.000000
   Ti35           0.000000     0.000000     0.000000
   Ti36           0.000000     0.000000     0.000000
   O1             0.000000     0.000000     0.000000
   O2             0.000000     0.000000     0.000000
   O3             0.000000     0.000000     0.000000
   O4             0.000000     0.000000     0.000000
   O5             0.000000     0.000000     0.000000
   O6             0.000000     0.000000     0.000000
   O7             0.000000     0.000000     0.000000
   O8             0.000000     0.000000     0.000000
   O9             0.000000     0.000000     0.000000
   O10            0.000000     0.000000     0.000000
   O11            0.000000     0.000000     0.000000
   O12            0.000000     0.000000     0.000000
   O13            0.000000     0.000000     0.000000
   O14            0.000000     0.000000     0.000000
   O15            0.000000     0.000000     0.000000
   O16            0.000000     0.000000     0.000000
   O17            0.000000     0.000000     0.000000
   O18           -0.566871     0.168793     0.105552
   O19           -0.599909    -0.173796     0.104499
   O20            0.000000     0.000000     0.000000
   O21            0.000000     0.000000     0.000000
   O22            0.000000     0.000000     0.000000
   O23            0.000000     0.000000     0.000000
   O24            0.548608     0.161348     0.113112
   O25            0.622128    -0.178216     0.108901
   O26            0.000000     0.000000     0.000000
   O27            0.000000     0.000000     0.000000
   O28            0.000000     0.000000     0.000000
   O29            0.000000     0.000000     0.000000
   O30            0.000000     0.000000     0.000000
   O31            0.000000     0.000000     0.000000
   O32            0.000000     0.000000     0.000000
   O33            0.000000     0.000000     0.000000
   O34            0.000000     0.000000     0.000000
   O35            0.000000     0.000000     0.000000
   O36           -0.527552    -0.006863    -0.184309
   O37            0.000000     0.000000     0.000000
   O38            0.000000     0.000000     0.000000
   O39            0.539301    -0.001861    -0.197419
   O40            0.000000     0.000000     0.000000
   O41            0.000000     0.000000     0.000000
   O42            0.000000     0.000000     0.000000
   O43            0.000000     0.000000     0.000000
   O44            0.000000     0.000000     0.000000
   O45            0.000000     0.000000     0.000000
   O46            0.000000     0.000000     0.000000
   O47            0.000000     0.000000     0.000000
   O48            0.000000     0.000000     0.000000
   O49            0.000000     0.000000     0.000000
   O50            0.000000     0.000000     0.000000
   O51            0.000000     0.000000     0.000000
   O52            0.000000     0.000000     0.000000
   O53            0.000000     0.000000     0.000000
   O54            0.000000     0.000000     0.000000
   O55            0.000000     0.000000     0.000000
   O56            0.000000     0.000000     0.000000
   O57            0.000000     0.000000     0.000000
   O58            0.000000     0.000000     0.000000
   O59            0.000000     0.000000     0.000000
   O60            0.000000     0.000000     0.000000
   O61            0.000000     0.000000     0.000000
   O62            0.000000     0.000000     0.000000
   O63            0.000000     0.000000     0.000000
   O64            0.000000     0.000000     0.000000
   O65            0.000000     0.000000     0.000000
   O66            0.000000     0.000000     0.000000
   O67            0.000000     0.000000     0.000000
   O68            0.000000     0.000000     0.000000
   O69            0.000000     0.000000     0.000000
   O70            0.000000     0.000000     0.000000
   O71            0.000000     0.000000     0.000000
   Ho1            0.000000     0.000000     0.000000
