#======================================================================
# CRYSTAL DATA (generated from VESTA)
#----------------------------------------------------------------------
data_VESTA_phase_1

_chemical_name_common                  'unknown system'
_cell_length_a                         13.854106
_cell_length_b                         13.854106
_cell_length_c                         11.999223
_cell_angle_alpha                      90.000000
_cell_angle_beta                       90.000000
_cell_angle_gamma                      90.000000
_space_group_name_H-M_alt              'P 1'
_space_group_IT_number                 1

loop_
_space_group_symop_operation_xyz
   'x, y, z'

loop_
   _atom_site_label
   _atom_site_occupancy
   _atom_site_fract_x
   _atom_site_fract_y
   _atom_site_fract_z
   _atom_site_adp_type
   _atom_site_U_iso_or_equiv
   _atom_site_type_symbol
   Ti1         1.000     0.161614     0.161577     0.994236    Uiso  ? Ti
   Ti2         1.000     0.161620     0.161582     0.255739    Uiso  ? Ti
   Ti3         1.000     0.167343     0.167310     0.501673    Uiso  ? Ti
   Ti4         1.000     0.167359     0.167321     0.748301    Uiso  ? Ti
   Ti5         1.000     0.166315     0.500432     0.000082    Uiso  ? Ti
   Ti6         1.000     0.166306     0.500417     0.249815    Uiso  ? Ti
   Ti7         1.000     0.166743     0.500082     0.499923    Uiso  ? Ti
   Ti8         1.000     0.166750     0.500083     0.749981    Uiso  ? Ti
   Ti9         1.000     0.166767     0.833313     0.999960    Uiso  ? Ti
   Ti10        1.000     0.166759     0.833310     0.249966    Uiso  ? Ti
   Ti11        1.000     0.166854     0.833345     0.499954    Uiso  ? Ti
   Ti12        1.000     0.166858     0.833350     0.749972    Uiso  ? Ti
   Ti13        1.000     0.500483     0.166248     0.000083    Uiso  ? Ti
   Ti14        1.000     0.500481     0.166255     0.249825    Uiso  ? Ti
   Ti15        1.000     0.500147     0.166676     0.499927    Uiso  ? Ti
   Ti16        1.000     0.500145     0.166679     0.749991    Uiso  ? Ti
   Ti17        1.000     0.501950     0.501899     0.998446    Uiso  ? Ti
   Ti18        1.000     0.501952     0.501905     0.251411    Uiso  ? Ti
   Ti19        1.000     0.499593     0.499528     0.499921    Uiso  ? Ti
   Ti20        1.000     0.499601     0.499530     0.749935    Uiso  ? Ti
   Ti21        1.000     0.500232     0.833305     0.999872    Uiso  ? Ti
   Ti22        1.000     0.500261     0.833316     0.250006    Uiso  ? Ti
   Ti23        1.000     0.500230     0.833336     0.499911    Uiso  ? Ti
   Ti24        1.000     0.500241     0.833346     0.749948    Uiso  ? Ti
   Ti25        1.000     0.833362     0.166711     0.999957    Uiso  ? Ti
   Ti26        1.000     0.833353     0.166699     0.249968    Uiso  ? Ti
   Ti27        1.000     0.833414     0.166791     0.499966    Uiso  ? Ti
   Ti28        1.000     0.833423     0.166796     0.749975    Uiso  ? Ti
   Ti29        1.000     0.833350     0.500196     0.999880    Uiso  ? Ti
   Ti30        1.000     0.833358     0.500229     0.250007    Uiso  ? Ti
   Ti31        1.000     0.833386     0.500194     0.499902    Uiso  ? Ti
   Ti32        1.000     0.833396     0.500210     0.749968    Uiso  ? Ti
   Ti33        1.000     0.832814     0.832753     0.000057    Uiso  ? Ti
   Ti34        1.000     0.832817     0.832744     0.249837    Uiso  ? Ti
   Ti35        1.000     0.832842     0.832759     0.500580    Uiso  ? Ti
   Ti36        1.000     0.832846     0.832772     0.749307    Uiso  ? Ti
   Ti37        1.000     0.999106     0.999063     0.124974    Uiso  ? Ti
   Ti38        1.000     0.997794     0.997751     0.375423    Uiso  ? Ti
   Ti39        1.000     0.999761     0.999696     0.624964    Uiso  ? Ti
   Ti40        1.000     0.997797     0.997749     0.874525    Uiso  ? Ti
   Ti41        1.000     0.999408     0.333799     0.124976    Uiso  ? Ti
   Ti42        1.000     0.000342     0.333430     0.375277    Uiso  ? Ti
   Ti43        1.000     0.000041     0.333377     0.624957    Uiso  ? Ti
   Ti44        1.000     0.000354     0.333443     0.874649    Uiso  ? Ti
   Ti45        1.000     0.999958     0.666880     0.124928    Uiso  ? Ti
   Ti46        1.000     0.000046     0.666848     0.375067    Uiso  ? Ti
   Ti47        1.000     0.000280     0.666636     0.624935    Uiso  ? Ti
   Ti48        1.000     0.000034     0.666858     0.874801    Uiso  ? Ti
   Ti49        1.000     0.333845     0.999369     0.124980    Uiso  ? Ti
   Ti50        1.000     0.333457     0.000314     0.375289    Uiso  ? Ti
   Ti51        1.000     0.333443     0.000001     0.624961    Uiso  ? Ti
   Ti52        1.000     0.333472     0.000314     0.874650    Uiso  ? Ti
   Ti53        1.000     0.340144     0.340072     0.124963    Uiso  ? Ti
   Ti54        1.000     0.332787     0.332754     0.374667    Uiso  ? Ti
   Ti55        1.000     0.334068     0.333986     0.624961    Uiso  ? Ti
   Ti56        1.000     0.332795     0.332749     0.875269    Uiso  ? Ti
   Ti57        1.000     0.333622     0.666874     0.124913    Uiso  ? Ti
   Ti58        1.000     0.333483     0.666717     0.374909    Uiso  ? Ti
   Ti59        1.000     0.333500     0.666739     0.624910    Uiso  ? Ti
   Ti60        1.000     0.333490     0.666719     0.874909    Uiso  ? Ti
   Ti61        1.000     0.666935     0.999891     0.124939    Uiso  ? Ti
   Ti62        1.000     0.666915     0.999966     0.375077    Uiso  ? Ti
   Ti63        1.000     0.666706     0.000216     0.624939    Uiso  ? Ti
   Ti64        1.000     0.666914     0.999967     0.874804    Uiso  ? Ti
   Ti65        1.000     0.666912     0.333593     0.124921    Uiso  ? Ti
   Ti66        1.000     0.666784     0.333422     0.374910    Uiso  ? Ti
   Ti67        1.000     0.666787     0.333437     0.624910    Uiso  ? Ti
   Ti68        1.000     0.666790     0.333424     0.874918    Uiso  ? Ti
   Ti69        1.000     0.666871     0.666817     0.124927    Uiso  ? Ti
   Ti70        1.000     0.667171     0.667139     0.375125    Uiso  ? Ti
   Ti71        1.000     0.666004     0.665953     0.624929    Uiso  ? Ti
   Ti72        1.000     0.667174     0.667159     0.874742    Uiso  ? Ti
   O1          1.000     0.230786     0.230733     0.374553    Uiso  ? O
   O2          1.000     0.232221     0.232177     0.624978    Uiso  ? O
   O3          1.000     0.230790     0.230735     0.875427    Uiso  ? O
   O4          1.000     0.232369     0.564786     0.124941    Uiso  ? O
   O5          1.000     0.232261     0.564661     0.374658    Uiso  ? O
   O6          1.000     0.232188     0.564787     0.624941    Uiso  ? O
   O7          1.000     0.232267     0.564666     0.875221    Uiso  ? O
   O8          1.000     0.231932     0.898752     0.124963    Uiso  ? O
   O9          1.000     0.231639     0.899341     0.374684    Uiso  ? O
   O10         1.000     0.231980     0.898643     0.624962    Uiso  ? O
   O11         1.000     0.231641     0.899347     0.875235    Uiso  ? O
   O12         1.000     0.564828     0.232307     0.124947    Uiso  ? O
   O13         1.000     0.564717     0.232194     0.374674    Uiso  ? O
   O14         1.000     0.564833     0.232126     0.624942    Uiso  ? O
   O15         1.000     0.564725     0.232193     0.875212    Uiso  ? O
   O16         1.000     0.565888     0.565835     0.124931    Uiso  ? O
   O17         1.000     0.565433     0.565390     0.375849    Uiso  ? O
   O18         1.000     0.564767     0.564701     0.624931    Uiso  ? O
   O19         1.000     0.565433     0.565391     0.874017    Uiso  ? O
   O20         1.000     0.565025     0.898724     0.124929    Uiso  ? O
   O21         1.000     0.565151     0.898644     0.374902    Uiso  ? O
   O22         1.000     0.564957     0.898797     0.624934    Uiso  ? O
   O23         1.000     0.565149     0.898646     0.874973    Uiso  ? O
   O24         1.000     0.898820     0.231857     0.124961    Uiso  ? O
   O25         1.000     0.899397     0.231576     0.374680    Uiso  ? O
   O26         1.000     0.898705     0.231912     0.624965    Uiso  ? O
   O27         1.000     0.899408     0.231582     0.875244    Uiso  ? O
   O28         1.000     0.898766     0.564982     0.124932    Uiso  ? O
   O29         1.000     0.898707     0.565105     0.374910    Uiso  ? O
   O30         1.000     0.898848     0.564923     0.624931    Uiso  ? O
   O31         1.000     0.898709     0.565107     0.874967    Uiso  ? O
   O32         1.000     0.898125     0.898065     0.124951    Uiso  ? O
   O33         1.000     0.897896     0.897821     0.375052    Uiso  ? O
   O34         1.000     0.898197     0.898133     0.624946    Uiso  ? O
   O35         1.000     0.897897     0.897825     0.874844    Uiso  ? O
   O36         1.000     0.267614     0.067152     0.001510    Uiso  ? O
   O37         1.000     0.267616     0.067155     0.248439    Uiso  ? O
   O38         1.000     0.268096     0.065412     0.500065    Uiso  ? O
   O39         1.000     0.268103     0.065418     0.749884    Uiso  ? O
   O40         1.000     0.267732     0.397481     0.001434    Uiso  ? O
   O41         1.000     0.267727     0.397473     0.248480    Uiso  ? O
   O42         1.000     0.268114     0.397966     0.499534    Uiso  ? O
   O43         1.000     0.268115     0.397963     0.750389    Uiso  ? O
   O44         1.000     0.268244     0.731797     0.999945    Uiso  ? O
   O45         1.000     0.268241     0.731796     0.249888    Uiso  ? O
   O46         1.000     0.268307     0.731866     0.499827    Uiso  ? O
   O47         1.000     0.268307     0.731864     0.750013    Uiso  ? O
   O48         1.000     0.601797     0.065197     0.999922    Uiso  ? O
   O49         1.000     0.601795     0.065191     0.249969    Uiso  ? O
   O50         1.000     0.601553     0.065287     0.499802    Uiso  ? O
   O51         1.000     0.601550     0.065288     0.750095    Uiso  ? O
   O52         1.000     0.601857     0.399076     0.999883    Uiso  ? O
   O53         1.000     0.601854     0.399079     0.249947    Uiso  ? O
   O54         1.000     0.601386     0.398459     0.499874    Uiso  ? O
   O55         1.000     0.601389     0.398461     0.749961    Uiso  ? O
   O56         1.000     0.601695     0.731994     0.999783    Uiso  ? O
   O57         1.000     0.601701     0.731991     0.250058    Uiso  ? O
   O58         1.000     0.601608     0.731921     0.500029    Uiso  ? O
   O59         1.000     0.601610     0.731926     0.749819    Uiso  ? O
   O60         1.000     0.934924     0.064872     0.999725    Uiso  ? O
   O61         1.000     0.934916     0.064866     0.250212    Uiso  ? O
   O62         1.000     0.934424     0.064597     0.500148    Uiso  ? O
   O63         1.000     0.934425     0.064599     0.749795    Uiso  ? O
   O64         1.000     0.935297     0.398014     0.999691    Uiso  ? O
   O65         1.000     0.935294     0.398018     0.250229    Uiso  ? O
   O66         1.000     0.935264     0.398298     0.499570    Uiso  ? O
   O67         1.000     0.935273     0.398304     0.750351    Uiso  ? O
   O68         1.000     0.934842     0.731944     0.999933    Uiso  ? O
   O69         1.000     0.934844     0.731936     0.249933    Uiso  ? O
   O70         1.000     0.934930     0.731840     0.500085    Uiso  ? O
   O71         1.000     0.934929     0.731847     0.749783    Uiso  ? O
   O72         1.000     0.067212     0.267601     0.001498    Uiso  ? O
   O73         1.000     0.067216     0.267604     0.248443    Uiso  ? O
   O74         1.000     0.065465     0.268070     0.500054    Uiso  ? O
   O75         1.000     0.065473     0.268079     0.749887    Uiso  ? O
   O76         1.000     0.065268     0.601754     0.999911    Uiso  ? O
   O77         1.000     0.065262     0.601749     0.249949    Uiso  ? O
   O78         1.000     0.065359     0.601500     0.499789    Uiso  ? O
   O79         1.000     0.065359     0.601501     0.750089    Uiso  ? O
   O80         1.000     0.064943     0.934901     0.999739    Uiso  ? O
   O81         1.000     0.064935     0.934895     0.250199    Uiso  ? O
   O82         1.000     0.064666     0.934382     0.500146    Uiso  ? O
   O83         1.000     0.064669     0.934380     0.749791    Uiso  ? O
   O84         1.000     0.397548     0.267690     0.001431    Uiso  ? O
   O85         1.000     0.397537     0.267685     0.248486    Uiso  ? O
   O86         1.000     0.398025     0.268054     0.499526    Uiso  ? O
   O87         1.000     0.398024     0.268056     0.750396    Uiso  ? O
   O88         1.000     0.399139     0.601826     0.999890    Uiso  ? O
   O89         1.000     0.399140     0.601824     0.249936    Uiso  ? O
   O90         1.000     0.398516     0.601328     0.499876    Uiso  ? O
   O91         1.000     0.398518     0.601331     0.749952    Uiso  ? O
   O92         1.000     0.398054     0.935266     0.999683    Uiso  ? O
   O93         1.000     0.398058     0.935266     0.250240    Uiso  ? O
   O94         1.000     0.398347     0.935229     0.499568    Uiso  ? O
   O95         1.000     0.398349     0.935236     0.750360    Uiso  ? O
   O96         1.000     0.731844     0.268204     0.999963    Uiso  ? O
   O97         1.000     0.731837     0.268201     0.249878    Uiso  ? O
   O98         1.000     0.731936     0.268259     0.499827    Uiso  ? O
   O99         1.000     0.731938     0.268257     0.750016    Uiso  ? O
   O100        1.000     0.732048     0.601664     0.999772    Uiso  ? O
   O101        1.000     0.732047     0.601669     0.250071    Uiso  ? O
   O102        1.000     0.731960     0.601567     0.500012    Uiso  ? O
   O103        1.000     0.731962     0.601572     0.749836    Uiso  ? O
   O104        1.000     0.732001     0.934787     0.999945    Uiso  ? O
   O105        1.000     0.732001     0.934783     0.249942    Uiso  ? O
   O106        1.000     0.731912     0.934866     0.500097    Uiso  ? O
   O107        1.000     0.731913     0.934868     0.749795    Uiso  ? O
   O108        1.000     0.101348     0.101354     0.124989    Uiso  ? O
   O109        1.000     0.100196     0.100172     0.377758    Uiso  ? O
   O110        1.000     0.101634     0.101609     0.624992    Uiso  ? O
   O111        1.000     0.100198     0.100176     0.872200    Uiso  ? O
   O112        1.000     0.101072     0.435221     0.124948    Uiso  ? O
   O113        1.000     0.101818     0.434569     0.374711    Uiso  ? O
   O114        1.000     0.101712     0.434780     0.624953    Uiso  ? O
   O115        1.000     0.101826     0.434575     0.875198    Uiso  ? O
   O116        1.000     0.101542     0.768406     0.124946    Uiso  ? O
   O117        1.000     0.101717     0.768293     0.374950    Uiso  ? O
   O118        1.000     0.101872     0.768129     0.624955    Uiso  ? O
   O119        1.000     0.101718     0.768302     0.874956    Uiso  ? O
   O120        1.000     0.435249     0.101037     0.124954    Uiso  ? O
   O121        1.000     0.434599     0.101780     0.374712    Uiso  ? O
   O122        1.000     0.434824     0.101660     0.624954    Uiso  ? O
   O123        1.000     0.434601     0.101787     0.875203    Uiso  ? O
   O124        1.000     0.437035     0.436999     0.124940    Uiso  ? O
   O125        1.000     0.434732     0.434691     0.374019    Uiso  ? O
   O126        1.000     0.434664     0.434603     0.624943    Uiso  ? O
   O127        1.000     0.434732     0.434692     0.875861    Uiso  ? O
   O128        1.000     0.434918     0.768477     0.124935    Uiso  ? O
   O129        1.000     0.435021     0.768253     0.374925    Uiso  ? O
   O130        1.000     0.434891     0.768369     0.624931    Uiso  ? O
   O131        1.000     0.435017     0.768252     0.874922    Uiso  ? O
   O132        1.000     0.768436     0.101495     0.124949    Uiso  ? O
   O133        1.000     0.768331     0.101668     0.374968    Uiso  ? O
   O134        1.000     0.768180     0.101812     0.624965    Uiso  ? O
   O135        1.000     0.768339     0.101673     0.874953    Uiso  ? O
   O136        1.000     0.768499     0.434895     0.124941    Uiso  ? O
   O137        1.000     0.768299     0.434983     0.374915    Uiso  ? O
   O138        1.000     0.768402     0.434854     0.624933    Uiso  ? O
   O139        1.000     0.768301     0.434978     0.874941    Uiso  ? O
   O140        1.000     0.768093     0.768032     0.124937    Uiso  ? O
   O141        1.000     0.768058     0.768006     0.375070    Uiso  ? O
   O142        1.000     0.767820     0.767755     0.624938    Uiso  ? O
   O143        1.000     0.768064     0.768014     0.874808    Uiso  ? O
   STH         1.000     0.232933     0.232876     0.124983    Uiso  ? Ho

loop_
   _atom_site_moment_label
   _atom_site_moment_crystalaxis_x
   _atom_site_moment_crystalaxis_y
   _atom_site_moment_crystalaxis_z
   Ti1           -0.648649    -0.651282    -0.676636
   Ti2           -0.645463    -0.650035     0.678196
   Ti3            0.000000     0.000000     0.000000
   Ti4            0.000000     0.000000     0.000000
   Ti5            0.000000     0.000000     0.000000
   Ti6            0.000000     0.000000     0.000000
   Ti7            0.000000     0.000000     0.000000
   Ti8            0.000000     0.000000     0.000000
   Ti9            0.000000     0.000000     0.000000
   Ti10           0.000000     0.000000     0.000000
   Ti11           0.000000     0.000000     0.000000
   Ti12           0.000000     0.000000     0.000000
   Ti13           0.000000     0.000000     0.000000
   Ti14           0.000000     0.000000     0.000000
   Ti15           0.000000     0.000000     0.000000
   Ti16           0.000000     0.000000     0.000000
   Ti17           0.000000     0.000000     0.000000
   Ti18           0.000000     0.000000     0.000000
   Ti19           0.000000     0.000000     0.000000
   Ti20           0.000000     0.000000     0.000000
   Ti21           0.000000     0.000000     0.000000
   Ti22           0.000000     0.000000     0.000000
   Ti23           0.000000     0.000000     0.000000
   Ti24           0.000000     0.000000     0.000000
   Ti25           0.000000     0.000000     0.000000
   Ti26           0.000000     0.000000     0.000000
   Ti27           0.000000     0.000000     0.000000
   Ti28           0.000000     0.000000     0.000000
   Ti29           0.000000     0.000000     0.000000
   Ti30           0.000000     0.000000     0.000000
   Ti31           0.000000     0.000000     0.000000
   Ti32           0.000000     0.000000     0.000000
   Ti33           0.000000     0.000000     0.000000
   Ti34           0.000000     0.000000     0.000000
   Ti35           0.000000     0.000000     0.000000
   Ti36           0.000000     0.000000     0.000000
   Ti37           0.000000     0.000000     0.000000
   Ti38           0.000000     0.000000     0.000000
   Ti39           0.000000     0.000000     0.000000
   Ti40           0.000000     0.000000     0.000000
   Ti41           0.000000     0.000000     0.000000
   Ti42           0.000000     0.000000     0.000000
   Ti43           0.000000     0.000000     0.000000
   Ti44           0.000000     0.000000     0.000000
   Ti45           0.000000     0.000000     0.000000
   Ti46           0.000000     0.000000     0.000000
   Ti47           0.000000     0.000000     0.000000
   Ti48           0.000000     0.000000     0.000000
   Ti49           0.000000     0.000000     0.000000
   Ti50           0.000000     0.000000     0.000000
   Ti51           0.000000     0.000000     0.000000
   Ti52           0.000000     0.000000     0.000000
   Ti53           0.891512     0.891096     0.001200
   Ti54           0.000000     0.000000     0.000000
   Ti55           0.000000     0.000000     0.000000
   Ti56           0.000000     0.000000     0.000000
   Ti57           0.000000     0.000000     0.000000
   Ti58           0.000000     0.000000     0.000000
   Ti59           0.000000     0.000000     0.000000
   Ti60           0.000000     0.000000     0.000000
   Ti61           0.000000     0.000000     0.000000
   Ti62           0.000000     0.000000     0.000000
   Ti63           0.000000     0.000000     0.000000
   Ti64           0.000000     0.000000     0.000000
   Ti65           0.000000     0.000000     0.000000
   Ti66           0.000000     0.000000     0.000000
   Ti67           0.000000     0.000000     0.000000
   Ti68           0.000000     0.000000     0.000000
   Ti69           0.000000     0.000000     0.000000
   Ti70           0.000000     0.000000     0.000000
   Ti71           0.000000     0.000000     0.000000
   Ti72           0.000000     0.000000     0.000000
   O1             0.000000     0.000000     0.000000
   O2             0.000000     0.000000     0.000000
   O3             0.000000     0.000000     0.000000
   O4             0.000000     0.000000     0.000000
   O5             0.000000     0.000000     0.000000
   O6             0.000000     0.000000     0.000000
   O7             0.000000     0.000000     0.000000
   O8             0.000000     0.000000     0.000000
   O9             0.000000     0.000000     0.000000
   O10            0.000000     0.000000     0.000000
   O11            0.000000     0.000000     0.000000
   O12            0.000000     0.000000     0.000000
   O13            0.000000     0.000000     0.000000
   O14            0.000000     0.000000     0.000000
   O15            0.000000     0.000000     0.000000
   O16            0.000000     0.000000     0.000000
   O17            0.000000     0.000000     0.000000
   O18            0.000000     0.000000     0.000000
   O19            0.000000     0.000000     0.000000
   O20            0.000000     0.000000     0.000000
   O21            0.000000     0.000000     0.000000
   O22            0.000000     0.000000     0.000000
   O23            0.000000     0.000000     0.000000
   O24            0.000000     0.000000     0.000000
   O25            0.000000     0.000000     0.000000
   O26            0.000000     0.000000     0.000000
   O27            0.000000     0.000000     0.000000
   O28            0.000000     0.000000     0.000000
   O29            0.000000     0.000000     0.000000
   O30            0.000000     0.000000     0.000000
   O31            0.000000     0.000000     0.000000
   O32            0.000000     0.000000     0.000000
   O33            0.000000     0.000000     0.000000
   O34            0.000000     0.000000     0.000000
   O35            0.000000     0.000000     0.000000
   O36            0.000000     0.000000     0.000000
   O37            0.000000     0.000000     0.000000
   O38            0.000000     0.000000     0.000000
   O39            0.000000     0.000000     0.000000
   O40            0.000000     0.000000     0.000000
   O41            0.000000     0.000000     0.000000
   O42            0.000000     0.000000     0.000000
   O43            0.000000     0.000000     0.000000
   O44            0.000000     0.000000     0.000000
   O45            0.000000     0.000000     0.000000
   O46            0.000000     0.000000     0.000000
   O47            0.000000     0.000000     0.000000
   O48            0.000000     0.000000     0.000000
   O49            0.000000     0.000000     0.000000
   O50            0.000000     0.000000     0.000000
   O51            0.000000     0.000000     0.000000
   O52            0.000000     0.000000     0.000000
   O53            0.000000     0.000000     0.000000
   O54            0.000000     0.000000     0.000000
   O55            0.000000     0.000000     0.000000
   O56            0.000000     0.000000     0.000000
   O57            0.000000     0.000000     0.000000
   O58            0.000000     0.000000     0.000000
   O59            0.000000     0.000000     0.000000
   O60            0.000000     0.000000     0.000000
   O61            0.000000     0.000000     0.000000
   O62            0.000000     0.000000     0.000000
   O63            0.000000     0.000000     0.000000
   O64            0.000000     0.000000     0.000000
   O65            0.000000     0.000000     0.000000
   O66            0.000000     0.000000     0.000000
   O67            0.000000     0.000000     0.000000
   O68            0.000000     0.000000     0.000000
   O69            0.000000     0.000000     0.000000
   O70            0.000000     0.000000     0.000000
   O71            0.000000     0.000000     0.000000
   O72            0.000000     0.000000     0.000000
   O73            0.000000     0.000000     0.000000
   O74            0.000000     0.000000     0.000000
   O75            0.000000     0.000000     0.000000
   O76            0.000000     0.000000     0.000000
   O77            0.000000     0.000000     0.000000
   O78            0.000000     0.000000     0.000000
   O79            0.000000     0.000000     0.000000
   O80            0.000000     0.000000     0.000000
   O81            0.000000     0.000000     0.000000
   O82            0.000000     0.000000     0.000000
   O83            0.000000     0.000000     0.000000
   O84            0.000000     0.000000     0.000000
   O85            0.000000     0.000000     0.000000
   O86            0.000000     0.000000     0.000000
   O87            0.000000     0.000000     0.000000
   O88            0.000000     0.000000     0.000000
   O89            0.000000     0.000000     0.000000
   O90            0.000000     0.000000     0.000000
   O91            0.000000     0.000000     0.000000
   O92            0.000000     0.000000     0.000000
   O93            0.000000     0.000000     0.000000
   O94            0.000000     0.000000     0.000000
   O95            0.000000     0.000000     0.000000
   O96            0.000000     0.000000     0.000000
   O97            0.000000     0.000000     0.000000
   O98            0.000000     0.000000     0.000000
   O99            0.000000     0.000000     0.000000
   O100           0.000000     0.000000     0.000000
   O101           0.000000     0.000000     0.000000
   O102           0.000000     0.000000     0.000000
   O103           0.000000     0.000000     0.000000
   O104           0.000000     0.000000     0.000000
   O105           0.000000     0.000000     0.000000
   O106           0.000000     0.000000     0.000000
   O107           0.000000     0.000000     0.000000
   O108           0.000000     0.000000     0.000000
   O109           0.000000     0.000000     0.000000
   O110           0.000000     0.000000     0.000000
   O111           0.000000     0.000000     0.000000
   O112           0.000000     0.000000     0.000000
   O113           0.000000     0.000000     0.000000
   O114           0.000000     0.000000     0.000000
   O115           0.000000     0.000000     0.000000
   O116           0.000000     0.000000     0.000000
   O117           0.000000     0.000000     0.000000
   O118           0.000000     0.000000     0.000000
   O119           0.000000     0.000000     0.000000
   O120           0.000000     0.000000     0.000000
   O121           0.000000     0.000000     0.000000
   O122           0.000000     0.000000     0.000000
   O123           0.000000     0.000000     0.000000
   O124           0.000000     0.000000     0.000000
   O125           0.000000     0.000000     0.000000
   O126           0.000000     0.000000     0.000000
   O127           0.000000     0.000000     0.000000
   O128           0.000000     0.000000     0.000000
   O129           0.000000     0.000000     0.000000
   O130           0.000000     0.000000     0.000000
   O131           0.000000     0.000000     0.000000
   O132           0.000000     0.000000     0.000000
   O133           0.000000     0.000000     0.000000
   O134           0.000000     0.000000     0.000000
   O135           0.000000     0.000000     0.000000
   O136           0.000000     0.000000     0.000000
   O137           0.000000     0.000000     0.000000
   O138           0.000000     0.000000     0.000000
   O139           0.000000     0.000000     0.000000
   O140           0.000000     0.000000     0.000000
   O141           0.000000     0.000000     0.000000
   O142           0.000000     0.000000     0.000000
   O143           0.000000     0.000000     0.000000
   Ho1            0.000000     0.000000     0.000000
