#======================================================================
# CRYSTAL DATA (generated from VESTA)
#----------------------------------------------------------------------
data_VESTA_phase_1

_chemical_name_common                  'unknown system'
_cell_length_a                         10.970591
_cell_length_b                         15.269628
_cell_length_c                         10.705423
_cell_angle_alpha                      90.000000
_cell_angle_beta                       90.000000
_cell_angle_gamma                      90.000000
_space_group_name_H-M_alt              'P 1'
_space_group_IT_number                 1

loop_
_space_group_symop_operation_xyz
   'x, y, z'

loop_
   _atom_site_label
   _atom_site_occupancy
   _atom_site_fract_x
   _atom_site_fract_y
   _atom_site_fract_z
   _atom_site_adp_type
   _atom_site_U_iso_or_equiv
   _atom_site_type_symbol
   Ca1         1.000     0.275023     0.375407     0.005719    Uiso  ? Ca
   Ca2         1.000     0.275049     0.374148     0.505015    Uiso  ? Ca
   Ca3         1.000     0.274898     0.874719     0.005743    Uiso  ? Ca
   Ca4         1.000     0.274891     0.875376     0.505009    Uiso  ? Ca
   Ca5         1.000     0.774324     0.374478     0.005389    Uiso  ? Ca
   Ca6         1.000     0.774427     0.374492     0.505747    Uiso  ? Ca
   Ca7         1.000     0.774439     0.875202     0.005519    Uiso  ? Ca
   Ca8         1.000     0.774531     0.874979     0.505646    Uiso  ? Ca
   Ca9         1.000     0.224999     0.124598     0.494072    Uiso  ? Ca
   Ca10        1.000     0.224974     0.125876     0.994862    Uiso  ? Ca
   Ca11        1.000     0.225086     0.625260     0.494137    Uiso  ? Ca
   Ca12        1.000     0.225116     0.624611     0.994858    Uiso  ? Ca
   Ca13        1.000     0.725702     0.125518     0.494466    Uiso  ? Ca
   Ca14        1.000     0.725579     0.125501     0.994121    Uiso  ? Ca
   Ca15        1.000     0.725561     0.624794     0.494390    Uiso  ? Ca
   Ca16        1.000     0.725449     0.625009     0.994218    Uiso  ? Ca
   Ca17        1.000     0.027111     0.373396     0.243117    Uiso  ? Ca
   Ca18        1.000     0.024471     0.374530     0.743324    Uiso  ? Ca
   Ca19        1.000     0.024956     0.875237     0.244435    Uiso  ? Ca
   Ca20        1.000     0.024691     0.875180     0.744105    Uiso  ? Ca
   Ca21        1.000     0.524259     0.375143     0.244600    Uiso  ? Ca
   Ca22        1.000     0.525290     0.374924     0.743315    Uiso  ? Ca
   Ca23        1.000     0.524356     0.874791     0.244760    Uiso  ? Ca
   Ca24        1.000     0.524795     0.875064     0.743803    Uiso  ? Ca
   Ca25        1.000     0.472928     0.126553     0.256721    Uiso  ? Ca
   Ca26        1.000     0.475540     0.125454     0.756483    Uiso  ? Ca
   Ca27        1.000     0.475039     0.624748     0.255417    Uiso  ? Ca
   Ca28        1.000     0.475303     0.624843     0.755766    Uiso  ? Ca
   Ca29        1.000     0.975767     0.124857     0.255212    Uiso  ? Ca
   Ca30        1.000     0.974717     0.125035     0.756452    Uiso  ? Ca
   Ca31        1.000     0.975642     0.625217     0.255112    Uiso  ? Ca
   Ca32        1.000     0.975216     0.624910     0.756079    Uiso  ? Ca
   Ti1         1.000     0.250014     0.249990     0.749911    Uiso  ? Ti
   Ti2         1.000     0.249997     0.749991     0.249940    Uiso  ? Ti
   Ti3         1.000     0.249991     0.749997     0.749949    Uiso  ? Ti
   Ti4         1.000     0.750025     0.249992     0.249933    Uiso  ? Ti
   Ti5         1.000     0.750018     0.249990     0.749935    Uiso  ? Ti
   Ti6         1.000     0.749998     0.749990     0.249958    Uiso  ? Ti
   Ti7         1.000     0.750005     0.749997     0.749956    Uiso  ? Ti
   Ti8         1.000     0.250181     0.000079     0.248884    Uiso  ? Ti
   Ti9         1.000     0.250118     0.000098     0.750101    Uiso  ? Ti
   Ti10        1.000     0.249839     0.499906     0.250970    Uiso  ? Ti
   Ti11        1.000     0.249881     0.499903     0.749745    Uiso  ? Ti
   Ti12        1.000     0.749571     0.000165     0.249996    Uiso  ? Ti
   Ti13        1.000     0.749780     0.999931     0.749907    Uiso  ? Ti
   Ti14        1.000     0.750446     0.499833     0.249894    Uiso  ? Ti
   Ti15        1.000     0.750218     0.500062     0.749977    Uiso  ? Ti
   Ti16        1.000     0.000956     0.250691     0.999482    Uiso  ? Ti
   Ti17        1.000     0.000258     0.249679     0.499455    Uiso  ? Ti
   Ti18        1.000     0.999915     0.750142     0.999849    Uiso  ? Ti
   Ti19        1.000     0.999950     0.749957     0.500081    Uiso  ? Ti
   Ti20        1.000     0.499791     0.250333     0.000371    Uiso  ? Ti
   Ti21        1.000     0.499085     0.249293     0.500304    Uiso  ? Ti
   Ti22        1.000     0.500066     0.750056     0.999833    Uiso  ? Ti
   Ti23        1.000     0.500055     0.749844     0.500050    Uiso  ? Ti
   Ti24        1.000     0.999999     0.999863     0.000091    Uiso  ? Ti
   Ti25        1.000     0.999908     0.000051     0.500056    Uiso  ? Ti
   Ti26        1.000     0.999906     0.499753     0.999715    Uiso  ? Ti
   Ti27        1.000     0.000157     0.500026     0.499492    Uiso  ? Ti
   Ti28        1.000     0.499827     0.999979     0.000337    Uiso  ? Ti
   Ti29        1.000     0.500105     0.000214     0.500170    Uiso  ? Ti
   Ti30        1.000     0.500151     0.499938     0.999785    Uiso  ? Ti
   Ti31        1.000     0.500018     0.500131     0.499760    Uiso  ? Ti
   O1          1.000     0.236195     0.379407     0.296375    Uiso  ? O
   O2          1.000     0.236367     0.375206     0.794438    Uiso  ? O
   O3          1.000     0.236626     0.874160     0.294509    Uiso  ? O
   O4          1.000     0.236773     0.874881     0.794411    Uiso  ? O
   O5          1.000     0.736201     0.375191     0.294347    Uiso  ? O
   O6          1.000     0.736696     0.375436     0.794350    Uiso  ? O
   O7          1.000     0.736397     0.874915     0.294413    Uiso  ? O
   O8          1.000     0.736416     0.874790     0.794595    Uiso  ? O
   O9          1.000     0.263831     0.120582     0.203489    Uiso  ? O
   O10         1.000     0.263637     0.124773     0.705347    Uiso  ? O
   O11         1.000     0.263367     0.625828     0.205359    Uiso  ? O
   O12         1.000     0.263223     0.625119     0.705458    Uiso  ? O
   O13         1.000     0.763818     0.124802     0.205500    Uiso  ? O
   O14         1.000     0.763305     0.124547     0.705497    Uiso  ? O
   O15         1.000     0.763601     0.625073     0.205436    Uiso  ? O
   O16         1.000     0.763598     0.625203     0.705303    Uiso  ? O
   O17         1.000     0.487598     0.375464     0.456196    Uiso  ? O
   O18         1.000     0.488190     0.375496     0.953994    Uiso  ? O
   O19         1.000     0.487909     0.874714     0.456057    Uiso  ? O
   O20         1.000     0.487626     0.874753     0.954583    Uiso  ? O
   O21         1.000     0.987189     0.375317     0.455176    Uiso  ? O
   O22         1.000     0.984575     0.375822     0.953422    Uiso  ? O
   O23         1.000     0.986793     0.874826     0.455688    Uiso  ? O
   O24         1.000     0.986163     0.874732     0.954748    Uiso  ? O
   O25         1.000     0.012426     0.124521     0.043621    Uiso  ? O
   O26         1.000     0.011855     0.124507     0.545787    Uiso  ? O
   O27         1.000     0.012104     0.625264     0.043823    Uiso  ? O
   O28         1.000     0.012349     0.625254     0.545297    Uiso  ? O
   O29         1.000     0.512800     0.124693     0.044669    Uiso  ? O
   O30         1.000     0.515449     0.124156     0.546406    Uiso  ? O
   O31         1.000     0.513179     0.625170     0.044168    Uiso  ? O
   O32         1.000     0.513834     0.625251     0.545130    Uiso  ? O
   O33         1.000     0.397543     0.477388     0.147305    Uiso  ? O
   O34         1.000     0.397200     0.476997     0.647925    Uiso  ? O
   O35         1.000     0.397124     0.974244     0.146788    Uiso  ? O
   O36         1.000     0.397009     0.976349     0.648093    Uiso  ? O
   O37         1.000     0.897438     0.476410     0.148048    Uiso  ? O
   O38         1.000     0.897213     0.476825     0.647735    Uiso  ? O
   O39         1.000     0.896562     0.976292     0.147740    Uiso  ? O
   O40         1.000     0.896700     0.976033     0.647796    Uiso  ? O
   O41         1.000     0.100567     0.225005     0.354442    Uiso  ? O
   O42         1.000     0.101897     0.226640     0.849555    Uiso  ? O
   O43         1.000     0.102688     0.726571     0.352435    Uiso  ? O
   O44         1.000     0.102861     0.726735     0.851906    Uiso  ? O
   O45         1.000     0.603597     0.226590     0.352277    Uiso  ? O
   O46         1.000     0.603210     0.226478     0.852224    Uiso  ? O
   O47         1.000     0.602959     0.726481     0.351973    Uiso  ? O
   O48         1.000     0.602924     0.726430     0.851964    Uiso  ? O
   O49         1.000     0.102460     0.022604     0.352524    Uiso  ? O
   O50         1.000     0.102785     0.022979     0.851898    Uiso  ? O
   O51         1.000     0.102888     0.525763     0.353076    Uiso  ? O
   O52         1.000     0.103003     0.523634     0.851783    Uiso  ? O
   O53         1.000     0.602569     0.023560     0.351830    Uiso  ? O
   O54         1.000     0.602788     0.023177     0.852126    Uiso  ? O
   O55         1.000     0.603444     0.523697     0.352115    Uiso  ? O
   O56         1.000     0.603316     0.523995     0.852063    Uiso  ? O
   O57         1.000     0.399434     0.275034     0.145322    Uiso  ? O
   O58         1.000     0.398084     0.273335     0.650206    Uiso  ? O
   O59         1.000     0.397296     0.773426     0.147460    Uiso  ? O
   O60         1.000     0.397136     0.773244     0.647979    Uiso  ? O
   O61         1.000     0.896437     0.273380     0.147536    Uiso  ? O
   O62         1.000     0.896798     0.273502     0.647589    Uiso  ? O
   O63         1.000     0.897026     0.773496     0.147912    Uiso  ? O
   O64         1.000     0.897064     0.773591     0.647916    Uiso  ? O
   O65         1.000     0.146858     0.477935     0.101119    Uiso  ? O
   O66         1.000     0.147345     0.476820     0.601738    Uiso  ? O
   O67         1.000     0.145563     0.974623     0.102009    Uiso  ? O
   O68         1.000     0.146969     0.976504     0.602310    Uiso  ? O
   O69         1.000     0.647407     0.476949     0.101958    Uiso  ? O
   O70         1.000     0.647491     0.477136     0.602046    Uiso  ? O
   O71         1.000     0.646969     0.976461     0.102162    Uiso  ? O
   O72         1.000     0.647190     0.975815     0.602341    Uiso  ? O
   O73         1.000     0.355871     0.225043     0.403924    Uiso  ? O
   O74         1.000     0.352677     0.226633     0.897790    Uiso  ? O
   O75         1.000     0.353219     0.726868     0.398062    Uiso  ? O
   O76         1.000     0.352751     0.726645     0.897904    Uiso  ? O
   O77         1.000     0.852315     0.227009     0.398104    Uiso  ? O
   O78         1.000     0.852356     0.226608     0.897148    Uiso  ? O
   O79         1.000     0.852789     0.726773     0.397863    Uiso  ? O
   O80         1.000     0.852695     0.726745     0.897809    Uiso  ? O
   O81         1.000     0.353145     0.022025     0.398758    Uiso  ? O
   O82         1.000     0.352642     0.023199     0.898122    Uiso  ? O
   O83         1.000     0.354445     0.525365     0.397848    Uiso  ? O
   O84         1.000     0.353038     0.523478     0.897547    Uiso  ? O
   O85         1.000     0.852602     0.023049     0.397907    Uiso  ? O
   O86         1.000     0.852502     0.022847     0.897827    Uiso  ? O
   O87         1.000     0.853030     0.523557     0.397706    Uiso  ? O
   O88         1.000     0.852802     0.524157     0.897553    Uiso  ? O
   O89         1.000     0.144201     0.274902     0.095829    Uiso  ? O
   O90         1.000     0.147353     0.273357     0.601994    Uiso  ? O
   O91         1.000     0.146760     0.773118     0.101841    Uiso  ? O
   O92         1.000     0.147221     0.773368     0.601997    Uiso  ? O
   O93         1.000     0.647710     0.272986     0.101736    Uiso  ? O
   O94         1.000     0.647662     0.273367     0.602680    Uiso  ? O
   O95         1.000     0.647188     0.773230     0.102040    Uiso  ? O
   O96         1.000     0.647295     0.773229     0.602080    Uiso  ? O
   STE         1.000     0.250032     0.250000     0.249899    Uiso  ? Eu

loop_
   _atom_site_moment_label
   _atom_site_moment_crystalaxis_x
   _atom_site_moment_crystalaxis_y
   _atom_site_moment_crystalaxis_z
   Ca1            0.000000     0.000000     0.000000
   Ca2            0.000000     0.000000     0.000000
   Ca3            0.000000     0.000000     0.000000
   Ca4            0.000000     0.000000     0.000000
   Ca5            0.000000     0.000000     0.000000
   Ca6            0.000000     0.000000     0.000000
   Ca7            0.000000     0.000000     0.000000
   Ca8            0.000000     0.000000     0.000000
   Ca9            0.000000     0.000000     0.000000
   Ca10           0.000000     0.000000     0.000000
   Ca11           0.000000     0.000000     0.000000
   Ca12           0.000000     0.000000     0.000000
   Ca13           0.000000     0.000000     0.000000
   Ca14           0.000000     0.000000     0.000000
   Ca15           0.000000     0.000000     0.000000
   Ca16           0.000000     0.000000     0.000000
   Ca17           0.000000     0.000000     0.000000
   Ca18           0.000000     0.000000     0.000000
   Ca19           0.000000     0.000000     0.000000
   Ca20           0.000000     0.000000     0.000000
   Ca21           0.000000     0.000000     0.000000
   Ca22           0.000000     0.000000     0.000000
   Ca23           0.000000     0.000000     0.000000
   Ca24           0.000000     0.000000     0.000000
   Ca25           0.000000     0.000000     0.000000
   Ca26           0.000000     0.000000     0.000000
   Ca27           0.000000     0.000000     0.000000
   Ca28           0.000000     0.000000     0.000000
   Ca29           0.000000     0.000000     0.000000
   Ca30           0.000000     0.000000     0.000000
   Ca31           0.000000     0.000000     0.000000
   Ca32           0.000000     0.000000     0.000000
   Ti1            0.000000     0.000000     0.000000
   Ti2            0.000000     0.000000     0.000000
   Ti3            0.000000     0.000000     0.000000
   Ti4            0.000000     0.000000     0.000000
   Ti5            0.000000     0.000000     0.000000
   Ti6            0.000000     0.000000     0.000000
   Ti7            0.000000     0.000000     0.000000
   Ti8            0.000000     0.000000     0.000000
   Ti9            0.000000     0.000000     0.000000
   Ti10           0.000000     0.000000     0.000000
   Ti11           0.000000     0.000000     0.000000
   Ti12           0.000000     0.000000     0.000000
   Ti13           0.000000     0.000000     0.000000
   Ti14           0.000000     0.000000     0.000000
   Ti15           0.000000     0.000000     0.000000
   Ti16           0.000000     0.000000     0.000000
   Ti17           0.000000     0.000000     0.000000
   Ti18           0.000000     0.000000     0.000000
   Ti19           0.000000     0.000000     0.000000
   Ti20           0.000000     0.000000     0.000000
   Ti21           0.000000     0.000000     0.000000
   Ti22           0.000000     0.000000     0.000000
   Ti23           0.000000     0.000000     0.000000
   Ti24           0.000000     0.000000     0.000000
   Ti25           0.000000     0.000000     0.000000
   Ti26           0.000000     0.000000     0.000000
   Ti27           0.000000     0.000000     0.000000
   Ti28           0.000000     0.000000     0.000000
   Ti29           0.000000     0.000000     0.000000
   Ti30           0.000000     0.000000     0.000000
   Ti31           0.000000     0.000000     0.000000
   O1            -0.059790     0.664229     0.216250
   O2             0.000000     0.000000     0.000000
   O3             0.000000     0.000000     0.000000
   O4             0.000000     0.000000     0.000000
   O5             0.000000     0.000000     0.000000
   O6             0.000000     0.000000     0.000000
   O7             0.000000     0.000000     0.000000
   O8             0.000000     0.000000     0.000000
   O9             0.060009    -0.664687    -0.213787
   O10            0.000000     0.000000     0.000000
   O11            0.000000     0.000000     0.000000
   O12            0.000000     0.000000     0.000000
   O13            0.000000     0.000000     0.000000
   O14            0.000000     0.000000     0.000000
   O15            0.000000     0.000000     0.000000
   O16            0.000000     0.000000     0.000000
   O17            0.000000     0.000000     0.000000
   O18            0.000000     0.000000     0.000000
   O19            0.000000     0.000000     0.000000
   O20            0.000000     0.000000     0.000000
   O21            0.000000     0.000000     0.000000
   O22            0.000000     0.000000     0.000000
   O23            0.000000     0.000000     0.000000
   O24            0.000000     0.000000     0.000000
   O25            0.000000     0.000000     0.000000
   O26            0.000000     0.000000     0.000000
   O27            0.000000     0.000000     0.000000
   O28            0.000000     0.000000     0.000000
   O29            0.000000     0.000000     0.000000
   O30            0.000000     0.000000     0.000000
   O31            0.000000     0.000000     0.000000
   O32            0.000000     0.000000     0.000000
   O33            0.000000     0.000000     0.000000
   O34            0.000000     0.000000     0.000000
   O35            0.000000     0.000000     0.000000
   O36            0.000000     0.000000     0.000000
   O37            0.000000     0.000000     0.000000
   O38            0.000000     0.000000     0.000000
   O39            0.000000     0.000000     0.000000
   O40            0.000000     0.000000     0.000000
   O41            0.000000     0.000000     0.000000
   O42            0.000000     0.000000     0.000000
   O43            0.000000     0.000000     0.000000
   O44            0.000000     0.000000     0.000000
   O45            0.000000     0.000000     0.000000
   O46            0.000000     0.000000     0.000000
   O47            0.000000     0.000000     0.000000
   O48            0.000000     0.000000     0.000000
   O49            0.000000     0.000000     0.000000
   O50            0.000000     0.000000     0.000000
   O51            0.000000     0.000000     0.000000
   O52            0.000000     0.000000     0.000000
   O53            0.000000     0.000000     0.000000
   O54            0.000000     0.000000     0.000000
   O55            0.000000     0.000000     0.000000
   O56            0.000000     0.000000     0.000000
   O57            0.000000     0.000000     0.000000
   O58            0.000000     0.000000     0.000000
   O59            0.000000     0.000000     0.000000
   O60            0.000000     0.000000     0.000000
   O61            0.000000     0.000000     0.000000
   O62            0.000000     0.000000     0.000000
   O63            0.000000     0.000000     0.000000
   O64            0.000000     0.000000     0.000000
   O65            0.000000     0.000000     0.000000
   O66            0.000000     0.000000     0.000000
   O67            0.000000     0.000000     0.000000
   O68            0.000000     0.000000     0.000000
   O69            0.000000     0.000000     0.000000
   O70            0.000000     0.000000     0.000000
   O71            0.000000     0.000000     0.000000
   O72            0.000000     0.000000     0.000000
   O73            0.303995    -0.244619     0.663415
   O74            0.000000     0.000000     0.000000
   O75            0.000000     0.000000     0.000000
   O76            0.000000     0.000000     0.000000
   O77            0.000000     0.000000     0.000000
   O78            0.000000     0.000000     0.000000
   O79            0.000000     0.000000     0.000000
   O80            0.000000     0.000000     0.000000
   O81            0.000000     0.000000     0.000000
   O82            0.000000     0.000000     0.000000
   O83            0.000000     0.000000     0.000000
   O84            0.000000     0.000000     0.000000
   O85            0.000000     0.000000     0.000000
   O86            0.000000     0.000000     0.000000
   O87            0.000000     0.000000     0.000000
   O88            0.000000     0.000000     0.000000
   O89           -0.300265     0.239122    -0.669303
   O90            0.000000     0.000000     0.000000
   O91            0.000000     0.000000     0.000000
   O92            0.000000     0.000000     0.000000
   O93            0.000000     0.000000     0.000000
   O94            0.000000     0.000000     0.000000
   O95            0.000000     0.000000     0.000000
   O96            0.000000     0.000000     0.000000
   Eu1            0.000000     0.000000     0.000000
