#======================================================================
# CRYSTAL DATA (generated from VESTA)
#----------------------------------------------------------------------
data_VESTA_phase_1

_chemical_name_common                  'unknown system'
_cell_length_a                         11.982219
_cell_length_b                         11.982219
_cell_length_c                         11.982219
_cell_angle_alpha                      89.981758
_cell_angle_beta                       89.981758
_cell_angle_gamma                      89.981758
_space_group_name_H-M_alt              'P 1'
_space_group_IT_number                 1

loop_
_space_group_symop_operation_xyz
   'x, y, z'

loop_
   _atom_site_label
   _atom_site_occupancy
   _atom_site_fract_x
   _atom_site_fract_y
   _atom_site_fract_z
   _atom_site_adp_type
   _atom_site_U_iso_or_equiv
   _atom_site_type_symbol
   Ba1         1.000     0.999318     0.997891     0.000479    Uiso  ? Ba
   Ba2         1.000     0.998169     0.997793     0.334375    Uiso  ? Ba
   Ba3         1.000     0.998499     0.998350     0.666815    Uiso  ? Ba
   Ba4         1.000     0.998526     0.336256     0.000050    Uiso  ? Ba
   Ba5         1.000     0.998634     0.334470     0.333565    Uiso  ? Ba
   Ba6         1.000     0.998777     0.334202     0.666484    Uiso  ? Ba
   Ba7         1.000     0.999803     0.666300     0.999654    Uiso  ? Ba
   Ba8         1.000     0.999499     0.666120     0.333091    Uiso  ? Ba
   Ba9         1.000     0.999615     0.666117     0.666506    Uiso  ? Ba
   Ba10        1.000     0.334154     0.996559     0.000077    Uiso  ? Ba
   Ba11        1.000     0.334465     0.997636     0.334367    Uiso  ? Ba
   Ba12        1.000     0.334276     0.998092     0.665972    Uiso  ? Ba
   Ba13        1.000     0.334115     0.336786     0.999815    Uiso  ? Ba
   Ba14        1.000     0.333900     0.334553     0.333596    Uiso  ? Ba
   Ba15        1.000     0.333829     0.334378     0.665807    Uiso  ? Ba
   Ba16        1.000     0.332824     0.666227     0.999659    Uiso  ? Ba
   Ba17        1.000     0.333048     0.666116     0.333083    Uiso  ? Ba
   Ba18        1.000     0.333021     0.666122     0.666369    Uiso  ? Ba
   Ba19        1.000     0.666378     0.999001     0.999650    Uiso  ? Ba
   Ba20        1.000     0.666195     0.999326     0.333149    Uiso  ? Ba
   Ba21        1.000     0.666304     0.999588     0.666397    Uiso  ? Ba
   Ba22        1.000     0.666135     0.333763     0.999558    Uiso  ? Ba
   Ba23        1.000     0.666054     0.333266     0.333015    Uiso  ? Ba
   Ba24        1.000     0.666178     0.333096     0.666294    Uiso  ? Ba
   Ba25        1.000     0.666414     0.666233     0.999724    Uiso  ? Ba
   Ba26        1.000     0.666432     0.666316     0.333021    Uiso  ? Ba
   Ba27        1.000     0.666387     0.666275     0.666491    Uiso  ? Ba
   Ti1         1.000     0.164588     0.161512     0.176845    Uiso  ? Ti
   Ti2         1.000     0.161878     0.162097     0.499440    Uiso  ? Ti
   Ti3         1.000     0.164563     0.162056     0.824612    Uiso  ? Ti
   Ti4         1.000     0.162220     0.495316     0.162828    Uiso  ? Ti
   Ti5         1.000     0.162227     0.495431     0.495773    Uiso  ? Ti
   Ti6         1.000     0.162389     0.495410     0.828834    Uiso  ? Ti
   Ti7         1.000     0.162404     0.828023     0.163065    Uiso  ? Ti
   Ti8         1.000     0.162384     0.827909     0.496151    Uiso  ? Ti
   Ti9         1.000     0.162476     0.828581     0.828956    Uiso  ? Ti
   Ti10        1.000     0.495868     0.162426     0.161668    Uiso  ? Ti
   Ti11        1.000     0.495068     0.162511     0.495202    Uiso  ? Ti
   Ti12        1.000     0.495830     0.162456     0.829639    Uiso  ? Ti
   Ti13        1.000     0.495776     0.495716     0.162627    Uiso  ? Ti
   Ti14        1.000     0.495922     0.495795     0.495607    Uiso  ? Ti
   Ti15        1.000     0.495842     0.495776     0.828801    Uiso  ? Ti
   Ti16        1.000     0.495986     0.828204     0.162742    Uiso  ? Ti
   Ti17        1.000     0.496173     0.828303     0.495950    Uiso  ? Ti
   Ti18        1.000     0.495999     0.828321     0.829092    Uiso  ? Ti
   Ti19        1.000     0.827493     0.162775     0.162217    Uiso  ? Ti
   Ti20        1.000     0.828452     0.162570     0.495706    Uiso  ? Ti
   Ti21        1.000     0.828285     0.162700     0.830095    Uiso  ? Ti
   Ti22        1.000     0.828695     0.495832     0.162691    Uiso  ? Ti
   Ti23        1.000     0.828564     0.495807     0.495780    Uiso  ? Ti
   Ti24        1.000     0.828780     0.495874     0.828908    Uiso  ? Ti
   Ti25        1.000     0.828963     0.828715     0.162633    Uiso  ? Ti
   Ti26        1.000     0.828765     0.828452     0.496080    Uiso  ? Ti
   Ti27        1.000     0.828963     0.828769     0.829232    Uiso  ? Ti
   O1          1.000     0.170976     0.171366     0.336721    Uiso  ? O
   O2          1.000     0.170783     0.171154     0.668566    Uiso  ? O
   O3          1.000     0.170905     0.504305     0.005127    Uiso  ? O
   O4          1.000     0.171019     0.504529     0.338408    Uiso  ? O
   O5          1.000     0.171052     0.504401     0.671445    Uiso  ? O
   O6          1.000     0.170928     0.838326     0.005361    Uiso  ? O
   O7          1.000     0.170990     0.838093     0.338558    Uiso  ? O
   O8          1.000     0.171018     0.838052     0.671333    Uiso  ? O
   O9          1.000     0.504220     0.171259     0.005053    Uiso  ? O
   O10         1.000     0.502642     0.171187     0.337444    Uiso  ? O
   O11         1.000     0.502455     0.171262     0.672659    Uiso  ? O
   O12         1.000     0.504115     0.504117     0.005260    Uiso  ? O
   O13         1.000     0.504469     0.504334     0.338428    Uiso  ? O
   O14         1.000     0.504400     0.504240     0.671805    Uiso  ? O
   O15         1.000     0.504058     0.837997     0.005246    Uiso  ? O
   O16         1.000     0.504516     0.837745     0.338514    Uiso  ? O
   O17         1.000     0.504472     0.837805     0.671841    Uiso  ? O
   O18         1.000     0.837456     0.171310     0.005032    Uiso  ? O
   O19         1.000     0.839218     0.171096     0.337632    Uiso  ? O
   O20         1.000     0.839147     0.171131     0.672473    Uiso  ? O
   O21         1.000     0.837743     0.504211     0.005315    Uiso  ? O
   O22         1.000     0.837516     0.504391     0.338508    Uiso  ? O
   O23         1.000     0.837540     0.504303     0.671817    Uiso  ? O
   O24         1.000     0.837852     0.837987     0.005283    Uiso  ? O
   O25         1.000     0.837387     0.837625     0.338658    Uiso  ? O
   O26         1.000     0.837470     0.837772     0.671901    Uiso  ? O
   O27         1.000     0.171511     0.005866     0.171204    Uiso  ? O
   O28         1.000     0.171069     0.006321     0.503370    Uiso  ? O
   O29         1.000     0.171532     0.005834     0.836351    Uiso  ? O
   O30         1.000     0.171461     0.338722     0.170889    Uiso  ? O
   O31         1.000     0.171147     0.338145     0.503462    Uiso  ? O
   O32         1.000     0.171398     0.338399     0.836636    Uiso  ? O
   O33         1.000     0.171103     0.671831     0.170719    Uiso  ? O
   O34         1.000     0.171035     0.671679     0.504015    Uiso  ? O
   O35         1.000     0.170981     0.671971     0.837333    Uiso  ? O
   O36         1.000     0.503507     0.006089     0.170940    Uiso  ? O
   O37         1.000     0.504410     0.005713     0.504219    Uiso  ? O
   O38         1.000     0.503607     0.005897     0.837856    Uiso  ? O
   O39         1.000     0.503817     0.338262     0.171034    Uiso  ? O
   O40         1.000     0.504475     0.338430     0.504236    Uiso  ? O
   O41         1.000     0.503909     0.338339     0.837862    Uiso  ? O
   O42         1.000     0.504508     0.671700     0.170917    Uiso  ? O
   O43         1.000     0.504424     0.671661     0.504367    Uiso  ? O
   O44         1.000     0.504472     0.671672     0.837789    Uiso  ? O
   O45         1.000     0.837913     0.005992     0.171154    Uiso  ? O
   O46         1.000     0.837554     0.005686     0.504337    Uiso  ? O
   O47         1.000     0.837985     0.005770     0.837924    Uiso  ? O
   O48         1.000     0.837674     0.338260     0.171201    Uiso  ? O
   O49         1.000     0.837574     0.338444     0.504307    Uiso  ? O
   O50         1.000     0.837705     0.338384     0.837761    Uiso  ? O
   O51         1.000     0.837487     0.671862     0.170880    Uiso  ? O
   O52         1.000     0.837640     0.671676     0.504469    Uiso  ? O
   O53         1.000     0.837591     0.671837     0.837797    Uiso  ? O
   O54         1.000     0.008576     0.171597     0.164715    Uiso  ? O
   O55         1.000     0.005978     0.171197     0.503412    Uiso  ? O
   O56         1.000     0.008020     0.171235     0.841516    Uiso  ? O
   O57         1.000     0.005045     0.504391     0.171173    Uiso  ? O
   O58         1.000     0.005178     0.504062     0.504228    Uiso  ? O
   O59         1.000     0.005183     0.504357     0.837380    Uiso  ? O
   O60         1.000     0.005181     0.837835     0.171338    Uiso  ? O
   O61         1.000     0.005171     0.837849     0.504353    Uiso  ? O
   O62         1.000     0.005270     0.837838     0.837458    Uiso  ? O
   O63         1.000     0.335409     0.171445     0.165432    Uiso  ? O
   O64         1.000     0.338103     0.171208     0.503558    Uiso  ? O
   O65         1.000     0.335816     0.171132     0.841038    Uiso  ? O
   O66         1.000     0.338715     0.504561     0.171080    Uiso  ? O
   O67         1.000     0.338686     0.504191     0.504214    Uiso  ? O
   O68         1.000     0.338624     0.504545     0.837514    Uiso  ? O
   O69         1.000     0.338723     0.837676     0.171269    Uiso  ? O
   O70         1.000     0.338677     0.837731     0.504274    Uiso  ? O
   O71         1.000     0.338692     0.837571     0.837454    Uiso  ? O
   O72         1.000     0.670868     0.171013     0.170000    Uiso  ? O
   O73         1.000     0.671814     0.171226     0.503874    Uiso  ? O
   O74         1.000     0.671105     0.170677     0.837242    Uiso  ? O
   O75         1.000     0.671731     0.504219     0.170990    Uiso  ? O
   O76         1.000     0.671689     0.504412     0.504378    Uiso  ? O
   O77         1.000     0.671740     0.504236     0.837736    Uiso  ? O
   O78         1.000     0.671726     0.838139     0.170911    Uiso  ? O
   O79         1.000     0.671685     0.837710     0.504440    Uiso  ? O
   O80         1.000     0.671735     0.838003     0.837781    Uiso  ? O
   Ho1         1.000     0.170172     0.171916     0.003452    Uiso  ? Ho

loop_
   _atom_site_moment_label
   _atom_site_moment_crystalaxis_x
   _atom_site_moment_crystalaxis_y
   _atom_site_moment_crystalaxis_z
   Ba1            0.000000     0.000000     0.000000
   Ba2            0.000000     0.000000     0.000000
   Ba3            0.000000     0.000000     0.000000
   Ba4            0.000000     0.000000     0.000000
   Ba5            0.000000     0.000000     0.000000
   Ba6            0.000000     0.000000     0.000000
   Ba7            0.000000     0.000000     0.000000
   Ba8            0.000000     0.000000     0.000000
   Ba9            0.000000     0.000000     0.000000
   Ba10           0.000000     0.000000     0.000000
   Ba11           0.000000     0.000000     0.000000
   Ba12           0.000000     0.000000     0.000000
   Ba13           0.000000     0.000000     0.000000
   Ba14           0.000000     0.000000     0.000000
   Ba15           0.000000     0.000000     0.000000
   Ba16           0.000000     0.000000     0.000000
   Ba17           0.000000     0.000000     0.000000
   Ba18           0.000000     0.000000     0.000000
   Ba19           0.000000     0.000000     0.000000
   Ba20           0.000000     0.000000     0.000000
   Ba21           0.000000     0.000000     0.000000
   Ba22           0.000000     0.000000     0.000000
   Ba23           0.000000     0.000000     0.000000
   Ba24           0.000000     0.000000     0.000000
   Ba25           0.000000     0.000000     0.000000
   Ba26           0.000000     0.000000     0.000000
   Ba27           0.000000     0.000000     0.000000
   Ti1            0.029228    -0.010846     0.181510
   Ti2            0.000000     0.000000     0.000000
   Ti3            0.031241    -0.000303    -0.053544
   Ti4            0.000000     0.000000     0.000000
   Ti5            0.000000     0.000000     0.000000
   Ti6            0.000000     0.000000     0.000000
   Ti7            0.000000     0.000000     0.000000
   Ti8            0.000000     0.000000     0.000000
   Ti9            0.000000     0.000000     0.000000
   Ti10           0.000000     0.000000     0.000000
   Ti11           0.000000     0.000000     0.000000
   Ti12           0.000000     0.000000     0.000000
   Ti13           0.000000     0.000000     0.000000
   Ti14           0.000000     0.000000     0.000000
   Ti15           0.000000     0.000000     0.000000
   Ti16           0.000000     0.000000     0.000000
   Ti17           0.000000     0.000000     0.000000
   Ti18           0.000000     0.000000     0.000000
   Ti19           0.000000     0.000000     0.000000
   Ti20           0.000000     0.000000     0.000000
   Ti21           0.000000     0.000000     0.000000
   Ti22           0.000000     0.000000     0.000000
   Ti23           0.000000     0.000000     0.000000
   Ti24           0.000000     0.000000     0.000000
   Ti25           0.000000     0.000000     0.000000
   Ti26           0.000000     0.000000     0.000000
   Ti27           0.000000     0.000000     0.000000
   O1             0.000000     0.000000     0.000000
   O2             0.000000     0.000000     0.000000
   O3             0.000000     0.000000     0.000000
   O4             0.000000     0.000000     0.000000
   O5             0.000000     0.000000     0.000000
   O6             0.000000     0.000000     0.000000
   O7             0.000000     0.000000     0.000000
   O8             0.000000     0.000000     0.000000
   O9             0.000000     0.000000     0.000000
   O10            0.000000     0.000000     0.000000
   O11            0.000000     0.000000     0.000000
   O12            0.000000     0.000000     0.000000
   O13            0.000000     0.000000     0.000000
   O14            0.000000     0.000000     0.000000
   O15            0.000000     0.000000     0.000000
   O16            0.000000     0.000000     0.000000
   O17            0.000000     0.000000     0.000000
   O18            0.000000     0.000000     0.000000
   O19            0.000000     0.000000     0.000000
   O20            0.000000     0.000000     0.000000
   O21            0.000000     0.000000     0.000000
   O22            0.000000     0.000000     0.000000
   O23            0.000000     0.000000     0.000000
   O24            0.000000     0.000000     0.000000
   O25            0.000000     0.000000     0.000000
   O26            0.000000     0.000000     0.000000
   O27            0.000000     0.000000     0.000000
   O28            0.000000     0.000000     0.000000
   O29            0.000000     0.000000     0.000000
   O30            0.000000     0.000000     0.000000
   O31            0.000000     0.000000     0.000000
   O32            0.000000     0.000000     0.000000
   O33            0.000000     0.000000     0.000000
   O34            0.000000     0.000000     0.000000
   O35            0.000000     0.000000     0.000000
   O36            0.000000     0.000000     0.000000
   O37            0.000000     0.000000     0.000000
   O38            0.000000     0.000000     0.000000
   O39            0.000000     0.000000     0.000000
   O40            0.000000     0.000000     0.000000
   O41            0.000000     0.000000     0.000000
   O42            0.000000     0.000000     0.000000
   O43            0.000000     0.000000     0.000000
   O44            0.000000     0.000000     0.000000
   O45            0.000000     0.000000     0.000000
   O46            0.000000     0.000000     0.000000
   O47            0.000000     0.000000     0.000000
   O48            0.000000     0.000000     0.000000
   O49            0.000000     0.000000     0.000000
   O50            0.000000     0.000000     0.000000
   O51            0.000000     0.000000     0.000000
   O52            0.000000     0.000000     0.000000
   O53            0.000000     0.000000     0.000000
   O54            0.038021     0.005398    -0.074031
   O55            0.000000     0.000000     0.000000
   O56            0.036159     0.001979     0.052057
   O57            0.000000     0.000000     0.000000
   O58            0.000000     0.000000     0.000000
   O59            0.000000     0.000000     0.000000
   O60            0.000000     0.000000     0.000000
   O61            0.000000     0.000000     0.000000
   O62            0.000000     0.000000     0.000000
   O63           -0.034134     0.002190    -0.058287
   O64            0.000000     0.000000     0.000000
   O65           -0.032729    -0.000574     0.040638
   O66            0.000000     0.000000     0.000000
   O67            0.000000     0.000000     0.000000
   O68            0.000000     0.000000     0.000000
   O69            0.000000     0.000000     0.000000
   O70            0.000000     0.000000     0.000000
   O71            0.000000     0.000000     0.000000
   O72            0.000000     0.000000     0.000000
   O73            0.000000     0.000000     0.000000
   O74            0.000000     0.000000     0.000000
   O75            0.000000     0.000000     0.000000
   O76            0.000000     0.000000     0.000000
   O77            0.000000     0.000000     0.000000
   O78            0.000000     0.000000     0.000000
   O79            0.000000     0.000000     0.000000
   O80            0.000000     0.000000     0.000000
   Ho1            0.000000     0.000000     0.000000
