#======================================================================
# CRYSTAL DATA (generated from VESTA)
#----------------------------------------------------------------------
data_VESTA_phase_1

_chemical_name_common                  'unknown system'
_cell_length_a                         12.02457
_cell_length_b                         12.02457
_cell_length_c                         12.02457
_cell_angle_alpha                      90.000000
_cell_angle_beta                       90.000000
_cell_angle_gamma                      90.000000
_space_group_name_H-M_alt              'P 1'
_space_group_IT_number                 1

loop_
_space_group_symop_operation_xyz
   'x, y, z'

loop_
   _atom_site_label
   _atom_site_occupancy
   _atom_site_fract_x
   _atom_site_fract_y
   _atom_site_fract_z
   _atom_site_adp_type
   _atom_site_U_iso_or_equiv
   _atom_site_type_symbol
Ba1 1.000 0.333089 0.333025 0.165880 Uiso ? Ba
Ba2 1.000 0.333018 0.332982 0.500020 Uiso ? Ba
Ba3 1.000 0.333058 0.333033 0.834171 Uiso ? Ba
Ba4 1.000 0.33297 0.666504 0.166189 Uiso ? Ba
Ba5 1.000 0.333074 0.666496 0.500001 Uiso ? Ba
Ba6 1.000 0.332953 0.666481 0.833811 Uiso ? Ba
Ba7 1.000 0.333076 0.999896 0.165856 Uiso ? Ba
Ba8 1.000 0.332998 1.00001 0.500027 Uiso ? Ba
Ba9 1.000 0.333045 0.999904 0.834147 Uiso ? Ba
Ba10 1.000 0.666494 0.33293 0.166215 Uiso ? Ba
Ba11 1.000 0.666518 0.333055 0.500023 Uiso ? Ba
Ba12 1.000 0.666489 0.332934 0.833840 Uiso ? Ba
Ba13 1.000 0.666534 0.666498 0.166366 Uiso ? Ba
Ba14 1.000 0.666556 0.66653 0.500003 Uiso ? Ba
Ba15 1.000 0.66652 0.666488 0.833651 Uiso ? Ba
Ba16 1.000 0.666514 1.00007 0.166204 Uiso ? Ba
Ba17 1.000 0.66651 1.00002 0.500019 Uiso ? Ba
Ba18 1.000 0.666507 1.00008 0.833822 Uiso ? Ba
Ba19 1.000 0.999962 0.333035 0.165870 Uiso ? Ba
Ba20 1.000 1.00005 0.332989 0.499996 Uiso ? Ba
Ba21 1.000 0.999935 0.33305 0.834165 Uiso ? Ba
Ba22 1.000 1.00012 0.666471 0.166182 Uiso ? Ba
Ba23 1.000 1.00004 0.666482 0.499986 Uiso ? Ba
Ba24 1.000 1.00009 0.666448 0.833805 Uiso ? Ba
Ba25 1.000 0.999933 0.999906 0.165850 Uiso ? Ba
Ba26 1.000 1.00002 1.00001 0.500001 Uiso ? Ba
Ba27 1.000 0.999903 0.999905 0.834135 Uiso ? Ba
Ti1 1.000 1.16649 1.16643 0.333318 Uiso ? Ti
Ti2 1.000 1.16645 1.16645 0.666705 Uiso ? Ti
Ti3 1.000 1.16651 0.4999 0.000015 Uiso ? Ti
Ti4 1.000 1.16653 0.49969 0.333161 Uiso ? Ti
Ti5 1.000 1.16651 0.499682 0.666834 Uiso ? Ti
Ti6 1.000 1.16648 0.833032 0.999976 Uiso ? Ti
Ti7 1.000 1.1665 0.833177 0.333170 Uiso ? Ti
Ti8 1.000 1.16647 0.833157 0.666813 Uiso ? Ti
Ti9 1.000 0.499928 1.16645 0.000023 Uiso ? Ti
Ti10 1.000 0.499726 1.16647 0.333202 Uiso ? Ti
Ti11 1.000 0.499711 1.16648 0.666870 Uiso ? Ti
Ti12 1.000 0.499805 0.499785 0.000022 Uiso ? Ti
Ti13 1.000 0.499782 0.49974 0.333277 Uiso ? Ti
Ti14 1.000 0.499766 0.49974 0.666760 Uiso ? Ti
Ti15 1.000 0.499828 0.833126 0.000000 Uiso ? Ti
Ti16 1.000 0.499767 0.833217 0.333269 Uiso ? Ti
Ti17 1.000 0.499747 0.833217 0.666748 Uiso ? Ti
Ti18 1.000 0.83306 1.16647 0.000023 Uiso ? Ti
Ti19 1.000 0.833202 1.16647 0.333193 Uiso ? Ti
Ti20 1.000 0.833193 1.16648 0.666839 Uiso ? Ti
Ti21 1.000 0.833151 0.49977 0.000018 Uiso ? Ti
Ti22 1.000 0.833264 0.49973 0.333265 Uiso ? Ti
Ti23 1.000 0.833244 0.499729 0.666749 Uiso ? Ti
Ti24 1.000 0.833151 0.8331 0.999992 Uiso ? Ti
Ti25 1.000 0.833242 0.833206 0.333254 Uiso ? Ti
Ti26 1.000 0.833217 0.8332 0.666731 Uiso ? Ti
O1 1.000 0.34102 1.16639 0.000007 Uiso ? O
O2 1.000 0.333645 1.16653 0.333789 Uiso ? O
O3 1.000 0.33361 1.16653 0.666313 Uiso ? O
O4 1.000 0.334499 0.501424 0.000021 Uiso ? O
O5 1.000 0.333424 0.499809 0.333540 Uiso ? O
O6 1.000 0.333401 0.499801 0.666492 Uiso ? O
O7 1.000 0.334497 0.831658 0.999989 Uiso ? O
O8 1.000 0.333405 0.833253 0.333535 Uiso ? O
O9 1.000 0.333382 0.833247 0.666453 Uiso ? O
O10 1.000 0.666505 1.16655 0.000008 Uiso ? O
O11 1.000 0.666517 1.16656 0.334364 Uiso ? O
O12 1.000 0.666509 1.16657 0.665744 Uiso ? O
O13 1.000 0.66652 0.500847 0.000037 Uiso ? O
O14 1.000 0.666584 0.499915 0.333606 Uiso ? O
O15 1.000 0.666562 0.499911 0.666421 Uiso ? O
O16 1.000 0.666545 0.832094 0.999995 Uiso ? O
O17 1.000 0.666568 0.833206 0.333593 Uiso ? O
O18 1.000 0.666545 0.833185 0.666400 Uiso ? O
O19 1.000 0.991953 1.16654 0.000068 Uiso ? O
O20 1.000 0.999428 1.16652 0.333816 Uiso ? O
O21 1.000 0.999402 1.16652 0.666171 Uiso ? O
O22 1.000 0.998587 0.501375 0.000008 Uiso ? O
O23 1.000 0.999755 0.499821 0.333542 Uiso ? O
O24 1.000 0.999729 0.499808 0.666476 Uiso ? O
O25 1.000 0.998564 0.831534 0.999975 Uiso ? O
O26 1.000 0.999731 0.83325 0.333514 Uiso ? O
O27 1.000 0.999702 0.833243 0.666459 Uiso ? O
O28 1.000 1.16658 0.340993 0.000056 Uiso ? O
O29 1.000 1.16657 0.333602 0.333703 Uiso ? O
O30 1.000 1.16652 0.333612 0.666248 Uiso ? O
O31 1.000 1.16656 0.666485 0.000021 Uiso ? O
O32 1.000 1.1666 0.666507 0.334286 Uiso ? O
O33 1.000 1.16656 0.666481 0.665662 Uiso ? O
O34 1.000 1.16643 0.991924 0.999917 Uiso ? O
O35 1.000 1.16657 0.999398 0.333867 Uiso ? O
O36 1.000 1.16652 0.999394 0.666213 Uiso ? O
O37 1.000 0.50133 0.33446 0.000040 Uiso ? O
O38 1.000 0.499848 0.333383 0.333573 Uiso ? O
O39 1.000 0.499815 0.333382 0.666499 Uiso ? O
O40 1.000 0.500895 0.666517 0.000009 Uiso ? O
O41 1.000 0.499951 0.666549 0.333618 Uiso ? O
O42 1.000 0.499915 0.666544 0.666432 Uiso ? O
O43 1.000 0.501495 0.998549 0.000032 Uiso ? O
O44 1.000 0.499831 0.999708 0.333551 Uiso ? O
O45 1.000 0.499815 0.99971 0.666500 Uiso ? O
O46 1.000 0.831606 0.334476 0.000014 Uiso ? O
O47 1.000 0.833294 0.333387 0.333534 Uiso ? O
O48 1.000 0.833267 0.333386 0.666497 Uiso ? O
O49 1.000 0.832131 0.666492 0.000005 Uiso ? O
O50 1.000 0.833228 0.666545 0.333593 Uiso ? O
O51 1.000 0.833201 0.666539 0.666401 Uiso ? O
O52 1.000 0.831627 0.998548 0.000010 Uiso ? O
O53 1.000 0.833278 0.999713 0.333546 Uiso ? O
O54 1.000 0.833228 0.999709 0.666457 Uiso ? O
O55 1.000 1.16653 1.16639 0.171088 Uiso ? O
O56 1.000 1.16657 1.16656 0.500015 Uiso ? O
O57 1.000 1.16642 1.16651 0.828939 Uiso ? O
O58 1.000 1.16658 0.500987 0.167756 Uiso ? O
O59 1.000 1.1666 0.499887 0.499992 Uiso ? O
O60 1.000 1.16657 0.500958 0.832263 Uiso ? O
O61 1.000 1.16655 0.832059 0.167752 Uiso ? O
O62 1.000 1.16655 0.833019 0.499997 Uiso ? O
O63 1.000 1.16654 0.831934 0.832212 Uiso ? O
O64 1.000 0.500996 1.16653 0.167783 Uiso ? O
O65 1.000 0.499916 1.16654 0.500045 Uiso ? O
O66 1.000 0.500989 1.16653 0.832285 Uiso ? O
O67 1.000 0.500011 0.499992 0.167116 Uiso ? O
O68 1.000 0.499985 0.499963 0.500024 Uiso ? O
O69 1.000 0.500013 0.499974 0.832936 Uiso ? O
O70 1.000 0.500011 0.833075 0.167098 Uiso ? O
O71 1.000 0.499967 0.833163 0.500010 Uiso ? O
O72 1.000 0.499996 0.833092 0.832917 Uiso ? O
O73 1.000 0.831975 1.16654 0.167791 Uiso ? O
O74 1.000 0.833037 1.16658 0.500016 Uiso ? O
O75 1.000 0.832057 1.16653 0.832256 Uiso ? O
O76 1.000 0.833132 0.499982 0.167102 Uiso ? O
O77 1.000 0.833189 0.499948 0.500009 Uiso ? O
O78 1.000 0.833099 0.499987 0.832924 Uiso ? O
O79 1.000 0.833099 0.833075 0.167086 Uiso ? O
O80 1.000 0.833167 0.833152 0.499993 Uiso ? O
O81 1.000 0.83308 0.833072 0.832902 Uiso ? O
Eu1 1.000 1.16647 1.16643 0.000012 Uiso ? Eu

loop_
   _atom_site_moment_label
   _atom_site_moment_crystalaxis_x
   _atom_site_moment_crystalaxis_y
   _atom_site_moment_crystalaxis_z
   Ba1            0.000000     0.000000     0.000000
   Ba2            0.000000     0.000000     0.000000
   Ba3            0.000000     0.000000     0.000000
   Ba4            0.000000     0.000000     0.000000
   Ba5            0.000000     0.000000     0.000000
   Ba6            0.000000     0.000000     0.000000
   Ba7            0.000000     0.000000     0.000000
   Ba8            0.000000     0.000000     0.000000
   Ba9            0.000000     0.000000     0.000000
   Ba10           0.000000     0.000000     0.000000
   Ba11           0.000000     0.000000     0.000000
   Ba12           0.000000     0.000000     0.000000
   Ba13           0.000000     0.000000     0.000000
   Ba14           0.000000     0.000000     0.000000
   Ba15           0.000000     0.000000     0.000000
   Ba16           0.000000     0.000000     0.000000
   Ba17           0.000000     0.000000     0.000000
   Ba18           0.000000     0.000000     0.000000
   Ba19           0.000000     0.000000     0.000000
   Ba20           0.000000     0.000000     0.000000
   Ba21           0.000000     0.000000     0.000000
   Ba22           0.000000     0.000000     0.000000
   Ba23           0.000000     0.000000     0.000000
   Ba24           0.000000     0.000000     0.000000
   Ba25           0.000000     0.000000     0.000000
   Ba26           0.000000     0.000000     0.000000
   Ba27           0.000000     0.000000     0.000000
   Ti1            0.000000     0.000000     0.000000
   Ti2            0.000000     0.000000     0.000000
   Ti3            0.000000     0.000000     0.000000
   Ti4            0.000000     0.000000     0.000000
   Ti5            0.000000     0.000000     0.000000
   Ti6            0.000000     0.000000     0.000000
   Ti7            0.000000     0.000000     0.000000
   Ti8            0.000000     0.000000     0.000000
   Ti9            0.000000     0.000000     0.000000
   Ti10           0.000000     0.000000     0.000000
   Ti11           0.000000     0.000000     0.000000
   Ti12           0.000000     0.000000     0.000000
   Ti13           0.000000     0.000000     0.000000
   Ti14           0.000000     0.000000     0.000000
   Ti15           0.000000     0.000000     0.000000
   Ti16           0.000000     0.000000     0.000000
   Ti17           0.000000     0.000000     0.000000
   Ti18           0.000000     0.000000     0.000000
   Ti19           0.000000     0.000000     0.000000
   Ti20           0.000000     0.000000     0.000000
   Ti21           0.000000     0.000000     0.000000
   Ti22           0.000000     0.000000     0.000000
   Ti23           0.000000     0.000000     0.000000
   Ti24           0.000000     0.000000     0.000000
   Ti25           0.000000     0.000000     0.000000
   Ti26           0.000000     0.000000     0.000000
   O1             0.934670    -0.009620    -0.000240
   O2             0.000000     0.000000     0.000000
   O3             0.000000     0.000000     0.000000
   O4             0.000000     0.000000     0.000000
   O5             0.000000     0.000000     0.000000
   O6             0.000000     0.000000     0.000000
   O7             0.000000     0.000000     0.000000
   O8             0.000000     0.000000     0.000000
   O9             0.000000     0.000000     0.000000
   O10            0.000000     0.000000     0.000000
   O11            0.000000     0.000000     0.000000
   O12            0.000000     0.000000     0.000000
   O13            0.000000     0.000000     0.000000
   O14            0.000000     0.000000     0.000000
   O15            0.000000     0.000000     0.000000
   O16            0.000000     0.000000     0.000000
   O17            0.000000     0.000000     0.000000
   O18            0.000000     0.000000     0.000000
   O19           -0.945251     0.000481     0.003607
   O20            0.000000     0.000000     0.000000
   O21            0.000000     0.000000     0.000000
   O22            0.000000     0.000000     0.000000
   O23            0.000000     0.000000     0.000000
   O24            0.000000     0.000000     0.000000
   O25            0.000000     0.000000     0.000000
   O26            0.000000     0.000000     0.000000
   O27            0.000000     0.000000     0.000000
   O28            0.001563     0.933948     0.003367
   O29            0.000000     0.000000     0.000000
   O30            0.000000     0.000000     0.000000
   O31            0.000000     0.000000     0.000000
   O32            0.000000     0.000000     0.000000
   O33            0.000000     0.000000     0.000000
   O34           -0.007455    -0.945852    -0.006253
   O35            0.000000     0.000000     0.000000
   O36            0.000000     0.000000     0.000000
   O37            0.000000     0.000000     0.000000
   O38            0.000000     0.000000     0.000000
   O39            0.000000     0.000000     0.000000
   O40            0.000000     0.000000     0.000000
   O41            0.000000     0.000000     0.000000
   O42            0.000000     0.000000     0.000000
   O43            0.000000     0.000000     0.000000
   O44            0.000000     0.000000     0.000000
   O45            0.000000     0.000000     0.000000
   O46            0.000000     0.000000     0.000000
   O47            0.000000     0.000000     0.000000
   O48            0.000000     0.000000     0.000000
   O49            0.000000     0.000000     0.000000
   O50            0.000000     0.000000     0.000000
   O51            0.000000     0.000000     0.000000
   O52            0.000000     0.000000     0.000000
   O53            0.000000     0.000000     0.000000
   O54            0.000000     0.000000     0.000000
   O55           -0.000601    -0.009379     0.540985
   O56            0.000000     0.000000     0.000000
   O57           -0.008778    -0.001082    -0.540625
   O58            0.000000     0.000000     0.000000
   O59            0.000000     0.000000     0.000000
   O60            0.000000     0.000000     0.000000
   O61            0.000000     0.000000     0.000000
   O62            0.000000     0.000000     0.000000
   O63            0.000000     0.000000     0.000000
   O64            0.000000     0.000000     0.000000
   O65            0.000000     0.000000     0.000000
   O66            0.000000     0.000000     0.000000
   O67            0.000000     0.000000     0.000000
   O68            0.000000     0.000000     0.000000
   O69            0.000000     0.000000     0.000000
   O70            0.000000     0.000000     0.000000
   O71            0.000000     0.000000     0.000000
   O72            0.000000     0.000000     0.000000
   O73            0.000000     0.000000     0.000000
   O74            0.000000     0.000000     0.000000
   O75            0.000000     0.000000     0.000000
   O76            0.000000     0.000000     0.000000
   O77            0.000000     0.000000     0.000000
   O78            0.000000     0.000000     0.000000
   O79            0.000000     0.000000     0.000000
   O80            0.000000     0.000000     0.000000
   O81            0.000000     0.000000     0.000000
   Eu1            0.000000     0.000000     0.000000
