#======================================================================
# CRYSTAL DATA (generated from VESTA)
#----------------------------------------------------------------------
data_VESTA_phase_1

_chemical_name_common                  'unknown system'
_cell_length_a                         11.028819
_cell_length_b                         11.028819
_cell_length_c                         15.789395
_cell_angle_alpha                      90.000000
_cell_angle_beta                       90.000000
_cell_angle_gamma                      90.000000
_space_group_name_H-M_alt              'P 1'
_space_group_IT_number                 1

loop_
_space_group_symop_operation_xyz
   'x, y, z'

loop_
   _atom_site_label
   _atom_site_occupancy
   _atom_site_fract_x
   _atom_site_fract_y
   _atom_site_fract_z
   _atom_site_adp_type
   _atom_site_U_iso_or_equiv
   _atom_site_type_symbol
   Sr1         1.000     0.252456     0.000499     0.123552    Uiso  ? Sr
   Sr2         1.000     0.252061     0.000370     0.625414    Uiso  ? Sr
   Sr3         1.000     0.250124     0.499873     0.125330    Uiso  ? Sr
   Sr4         1.000     0.250189     0.499740     0.625346    Uiso  ? Sr
   Sr5         1.000     0.747597     0.999535     0.123562    Uiso  ? Sr
   Sr6         1.000     0.748003     0.999657     0.625442    Uiso  ? Sr
   Sr7         1.000     0.749935     0.500152     0.125316    Uiso  ? Sr
   Sr8         1.000     0.749883     0.500295     0.625331    Uiso  ? Sr
   Sr9         1.000     0.001852     0.256161     0.376175    Uiso  ? Sr
   Sr10        1.000     0.000316     0.250890     0.875265    Uiso  ? Sr
   Sr11        1.000     0.998213     0.743875     0.376132    Uiso  ? Sr
   Sr12        1.000     0.999743     0.749153     0.875215    Uiso  ? Sr
   Sr13        1.000     0.499953     0.250765     0.374856    Uiso  ? Sr
   Sr14        1.000     0.500110     0.250272     0.874892    Uiso  ? Sr
   Sr15        1.000     0.500110     0.749266     0.374898    Uiso  ? Sr
   Sr16        1.000     0.499948     0.749766     0.874926    Uiso  ? Sr
   Sr17        1.000     0.000360     0.252057     0.124634    Uiso  ? Sr
   Sr18        1.000     0.000510     0.252431     0.626514    Uiso  ? Sr
   Sr19        1.000     0.999653     0.747995     0.124598    Uiso  ? Sr
   Sr20        1.000     0.999531     0.747595     0.626471    Uiso  ? Sr
   Sr21        1.000     0.499724     0.250170     0.124688    Uiso  ? Sr
   Sr22        1.000     0.499877     0.250117     0.624703    Uiso  ? Sr
   Sr23        1.000     0.500280     0.749876     0.124730    Uiso  ? Sr
   Sr24        1.000     0.500155     0.749925     0.624742    Uiso  ? Sr
   Sr25        1.000     0.256183     0.001831     0.373886    Uiso  ? Sr
   Sr26        1.000     0.250862     0.000310     0.874792    Uiso  ? Sr
   Sr27        1.000     0.250787     0.499943     0.375192    Uiso  ? Sr
   Sr28        1.000     0.250253     0.500100     0.875138    Uiso  ? Sr
   Sr29        1.000     0.743864     0.998198     0.373902    Uiso  ? Sr
   Sr30        1.000     0.749158     0.999744     0.874815    Uiso  ? Sr
   Sr31        1.000     0.749263     0.500106     0.375169    Uiso  ? Sr
   Sr32        1.000     0.749768     0.499947     0.875133    Uiso  ? Sr
   Ti1         1.000     0.000002     0.000017     0.244294    Uiso  ? Ti
   Ti2         1.000     0.000021     0.000027     0.751523    Uiso  ? Ti
   Ti3         1.000     0.000020     0.500018     0.249715    Uiso  ? Ti
   Ti4         1.000     0.000017     0.500014     0.750365    Uiso  ? Ti
   Ti5         1.000     0.500016     0.000013     0.249484    Uiso  ? Ti
   Ti6         1.000     0.500021     0.000018     0.750169    Uiso  ? Ti
   Ti7         1.000     0.500020     0.500013     0.249788    Uiso  ? Ti
   Ti8         1.000     0.500032     0.500024     0.749845    Uiso  ? Ti
   Ti9         1.000     0.249858     0.250019     0.500172    Uiso  ? Ti
   Ti10        1.000     0.250034     0.250209     0.999923    Uiso  ? Ti
   Ti11        1.000     0.250211     0.749707     0.499593    Uiso  ? Ti
   Ti12        1.000     0.249653     0.750234     0.000005    Uiso  ? Ti
   Ti13        1.000     0.749833     0.250330     0.499592    Uiso  ? Ti
   Ti14        1.000     0.750398     0.249807     0.000004    Uiso  ? Ti
   Ti15        1.000     0.750201     0.750018     0.500170    Uiso  ? Ti
   Ti16        1.000     0.750000     0.749835     0.999919    Uiso  ? Ti
   Ti17        1.000     0.000022     0.000019     0.998529    Uiso  ? Ti
   Ti18        1.000     0.000007     0.000012     0.505759    Uiso  ? Ti
   Ti19        1.000     0.000022     0.500028     0.999865    Uiso  ? Ti
   Ti20        1.000     0.000015     0.500012     0.500522    Uiso  ? Ti
   Ti21        1.000     0.500019     0.000021     0.999653    Uiso  ? Ti
   Ti22        1.000     0.500031     0.000016     0.500326    Uiso  ? Ti
   Ti23        1.000     0.500021     0.500020     0.000221    Uiso  ? Ti
   Ti24        1.000     0.500035     0.500018     0.500276    Uiso  ? Ti
   Ti25        1.000     0.250010     0.249848     0.249871    Uiso  ? Ti
   Ti26        1.000     0.250224     0.250040     0.750097    Uiso  ? Ti
   Ti27        1.000     0.250328     0.749823     0.250453    Uiso  ? Ti
   Ti28        1.000     0.249809     0.750393     0.750031    Uiso  ? Ti
   Ti29        1.000     0.749709     0.250210     0.250451    Uiso  ? Ti
   Ti30        1.000     0.750234     0.249644     0.750031    Uiso  ? Ti
   Ti31        1.000     0.750020     0.750185     0.249866    Uiso  ? Ti
   Ti32        1.000     0.749832     0.750002     0.750086    Uiso  ? Ti
   O1          1.000     0.357744     0.107668     0.999796    Uiso  ? O
   O2          1.000     0.357891     0.107875     0.500225    Uiso  ? O
   O3          1.000     0.357262     0.607886     0.001191    Uiso  ? O
   O4          1.000     0.357459     0.607911     0.501066    Uiso  ? O
   O5          1.000     0.857518     0.106835     0.999166    Uiso  ? O
   O6          1.000     0.859216     0.105573     0.493912    Uiso  ? O
   O7          1.000     0.857450     0.607339     0.000328    Uiso  ? O
   O8          1.000     0.857759     0.607416     0.499592    Uiso  ? O
   O9          1.000     0.107862     0.357874     0.249830    Uiso  ? O
   O10         1.000     0.107679     0.357747     0.750250    Uiso  ? O
   O11         1.000     0.105570     0.859199     0.256051    Uiso  ? O
   O12         1.000     0.106826     0.857521     0.750794    Uiso  ? O
   O13         1.000     0.607909     0.357439     0.248921    Uiso  ? O
   O14         1.000     0.607897     0.357265     0.748778    Uiso  ? O
   O15         1.000     0.607420     0.857750     0.250460    Uiso  ? O
   O16         1.000     0.607333     0.857445     0.749724    Uiso  ? O
   O17         1.000     0.107124     0.142724     0.000391    Uiso  ? O
   O18         1.000     0.106376     0.142637     0.500947    Uiso  ? O
   O19         1.000     0.107126     0.642749     0.999999    Uiso  ? O
   O20         1.000     0.107383     0.642780     0.500357    Uiso  ? O
   O21         1.000     0.607805     0.142355     0.000507    Uiso  ? O
   O22         1.000     0.608338     0.141811     0.499829    Uiso  ? O
   O23         1.000     0.607448     0.642467     0.000052    Uiso  ? O
   O24         1.000     0.607779     0.642249     0.499673    Uiso  ? O
   O25         1.000     0.357788     0.392259     0.250545    Uiso  ? O
   O26         1.000     0.357581     0.392582     0.750168    Uiso  ? O
   O27         1.000     0.357257     0.892651     0.249694    Uiso  ? O
   O28         1.000     0.357296     0.892920     0.750051    Uiso  ? O
   O29         1.000     0.858217     0.391718     0.250224    Uiso  ? O
   O30         1.000     0.857684     0.392237     0.749529    Uiso  ? O
   O31         1.000     0.857383     0.893666     0.249288    Uiso  ? O
   O32         1.000     0.857320     0.892909     0.749851    Uiso  ? O
   O33         1.000     0.142638     0.106360     0.249119    Uiso  ? O
   O34         1.000     0.142723     0.107126     0.749639    Uiso  ? O
   O35         1.000     0.141825     0.608316     0.250231    Uiso  ? O
   O36         1.000     0.142351     0.607801     0.749527    Uiso  ? O
   O37         1.000     0.642779     0.107381     0.249695    Uiso  ? O
   O38         1.000     0.642745     0.107123     0.750048    Uiso  ? O
   O39         1.000     0.642255     0.607758     0.250385    Uiso  ? O
   O40         1.000     0.642471     0.607450     0.749997    Uiso  ? O
   O41         1.000     0.392272     0.357789     0.499513    Uiso  ? O
   O42         1.000     0.392582     0.357573     0.999888    Uiso  ? O
   O43         1.000     0.391717     0.858223     0.499827    Uiso  ? O
   O44         1.000     0.392237     0.857683     0.000497    Uiso  ? O
   O45         1.000     0.892670     0.357243     0.500356    Uiso  ? O
   O46         1.000     0.892910     0.357308     0.999995    Uiso  ? O
   O47         1.000     0.893678     0.857376     0.500765    Uiso  ? O
   O48         1.000     0.892906     0.857322     0.000208    Uiso  ? O
   O49         1.000     0.392608     0.142275     0.250473    Uiso  ? O
   O50         1.000     0.392717     0.142593     0.749736    Uiso  ? O
   O51         1.000     0.392133     0.642584     0.248993    Uiso  ? O
   O52         1.000     0.392158     0.642778     0.748841    Uiso  ? O
   O53         1.000     0.894461     0.140839     0.256110    Uiso  ? O
   O54         1.000     0.893224     0.142530     0.750886    Uiso  ? O
   O55         1.000     0.892177     0.642159     0.249836    Uiso  ? O
   O56         1.000     0.892370     0.642292     0.750251    Uiso  ? O
   O57         1.000     0.142293     0.392614     0.499585    Uiso  ? O
   O58         1.000     0.142589     0.392713     0.000313    Uiso  ? O
   O59         1.000     0.140846     0.894477     0.494008    Uiso  ? O
   O60         1.000     0.142532     0.893216     0.999254    Uiso  ? O
   O61         1.000     0.642606     0.392130     0.501148    Uiso  ? O
   O62         1.000     0.642780     0.392153     0.001265    Uiso  ? O
   O63         1.000     0.642165     0.892166     0.500226    Uiso  ? O
   O64         1.000     0.642292     0.892372     0.999799    Uiso  ? O
   O65         1.000     0.000168     0.000080     0.875028    Uiso  ? O
   O66         1.000     0.000018     0.500012     0.375084    Uiso  ? O
   O67         1.000     0.000017     0.500021     0.875051    Uiso  ? O
   O68         1.000     0.500022     0.000015     0.374962    Uiso  ? O
   O69         1.000     0.500030     0.000022     0.874983    Uiso  ? O
   O70         1.000     0.500133     0.500049     0.375032    Uiso  ? O
   O71         1.000     0.500128     0.500064     0.875025    Uiso  ? O
   O72         1.000     0.250416     0.249931     0.125068    Uiso  ? O
   O73         1.000     0.249954     0.250424     0.624978    Uiso  ? O
   O74         1.000     0.246132     0.752663     0.125796    Uiso  ? O
   O75         1.000     0.247384     0.753930     0.624248    Uiso  ? O
   O76         1.000     0.754009     0.247307     0.125794    Uiso  ? O
   O77         1.000     0.752756     0.246020     0.624248    Uiso  ? O
   O78         1.000     0.749779     0.750270     0.125065    Uiso  ? O
   O79         1.000     0.750277     0.749772     0.624982    Uiso  ? O
   O80         1.000     0.999844     0.999947     0.124066    Uiso  ? O
   O81         1.000     0.999799     0.999949     0.625987    Uiso  ? O
   O82         1.000     0.000020     0.500021     0.125032    Uiso  ? O
   O83         1.000     0.000010     0.500005     0.625109    Uiso  ? O
   O84         1.000     0.500008     0.000016     0.124927    Uiso  ? O
   O85         1.000     0.500014     0.000022     0.625010    Uiso  ? O
   O86         1.000     0.499902     0.499965     0.125162    Uiso  ? O
   O87         1.000     0.499913     0.499972     0.624895    Uiso  ? O
   O88         1.000     0.249061     0.249067     0.375030    Uiso  ? O
   O89         1.000     0.249716     0.249714     0.875016    Uiso  ? O
   O90         1.000     0.252411     0.747628     0.375026    Uiso  ? O
   O91         1.000     0.250490     0.749540     0.875015    Uiso  ? O
   O92         1.000     0.747553     0.252495     0.375024    Uiso  ? O
   O93         1.000     0.749469     0.250566     0.875019    Uiso  ? O
   O94         1.000     0.750785     0.750783     0.375027    Uiso  ? O
   O95         1.000     0.750129     0.750130     0.875018    Uiso  ? O
   Ho1         1.000     0.000113     0.000060     0.375025    Uiso  ? Ho

loop_
   _atom_site_moment_label
   _atom_site_moment_crystalaxis_x
   _atom_site_moment_crystalaxis_y
   _atom_site_moment_crystalaxis_z
   Sr1            0.000000     0.000000     0.000000
   Sr2            0.000000     0.000000     0.000000
   Sr3            0.000000     0.000000     0.000000
   Sr4            0.000000     0.000000     0.000000
   Sr5            0.000000     0.000000     0.000000
   Sr6            0.000000     0.000000     0.000000
   Sr7            0.000000     0.000000     0.000000
   Sr8            0.000000     0.000000     0.000000
   Sr9            0.195100     0.685000     0.174946
   Sr10           0.000000     0.000000     0.000000
   Sr11          -0.194218    -0.683787     0.174631
   Sr12           0.000000     0.000000     0.000000
   Sr13           0.000000     0.000000     0.000000
   Sr14           0.000000     0.000000     0.000000
   Sr15           0.000000     0.000000     0.000000
   Sr16           0.000000     0.000000     0.000000
   Sr17           0.000000     0.000000     0.000000
   Sr18           0.000000     0.000000     0.000000
   Sr19           0.000000     0.000000     0.000000
   Sr20           0.000000     0.000000     0.000000
   Sr21           0.000000     0.000000     0.000000
   Sr22           0.000000     0.000000     0.000000
   Sr23           0.000000     0.000000     0.000000
   Sr24           0.000000     0.000000     0.000000
   Sr25           0.687426     0.194328    -0.173841
   Sr26           0.000000     0.000000     0.000000
   Sr27           0.000000     0.000000     0.000000
   Sr28           0.000000     0.000000     0.000000
   Sr29          -0.685221    -0.195210    -0.174157
   Sr30           0.000000     0.000000     0.000000
   Sr31           0.000000     0.000000     0.000000
   Sr32           0.000000     0.000000     0.000000
   Ti1           -0.002426    -0.000221    -0.901417
   Ti2            0.000000     0.000000     0.000000
   Ti3            0.000000     0.000000     0.000000
   Ti4            0.000000     0.000000     0.000000
   Ti5            0.000000     0.000000     0.000000
   Ti6            0.000000     0.000000     0.000000
   Ti7            0.000000     0.000000     0.000000
   Ti8            0.000000     0.000000     0.000000
   Ti9            0.000000     0.000000     0.000000
   Ti10           0.000000     0.000000     0.000000
   Ti11           0.000000     0.000000     0.000000
   Ti12           0.000000     0.000000     0.000000
   Ti13           0.000000     0.000000     0.000000
   Ti14           0.000000     0.000000     0.000000
   Ti15           0.000000     0.000000     0.000000
   Ti16           0.000000     0.000000     0.000000
   Ti17           0.000000     0.000000     0.000000
   Ti18          -0.001544    -0.000993     0.898890
   Ti19           0.000000     0.000000     0.000000
   Ti20           0.000000     0.000000     0.000000
   Ti21           0.000000     0.000000     0.000000
   Ti22           0.000000     0.000000     0.000000
   Ti23           0.000000     0.000000     0.000000
   Ti24           0.000000     0.000000     0.000000
   Ti25           0.000000     0.000000     0.000000
   Ti26           0.000000     0.000000     0.000000
   Ti27           0.000000     0.000000     0.000000
   Ti28           0.000000     0.000000     0.000000
   Ti29           0.000000     0.000000     0.000000
   Ti30           0.000000     0.000000     0.000000
   Ti31           0.000000     0.000000     0.000000
   Ti32           0.000000     0.000000     0.000000
   O1             0.000000     0.000000     0.000000
   O2             0.000000     0.000000     0.000000
   O3             0.000000     0.000000     0.000000
   O4             0.000000     0.000000     0.000000
   O5             0.000000     0.000000     0.000000
   O6             0.223113    -0.177674    -0.937258
   O7             0.000000     0.000000     0.000000
   O8             0.000000     0.000000     0.000000
   O9             0.000000     0.000000     0.000000
   O10            0.000000     0.000000     0.000000
   O11           -0.177785     0.222010     0.938522
   O12            0.000000     0.000000     0.000000
   O13            0.000000     0.000000     0.000000
   O14            0.000000     0.000000     0.000000
   O15            0.000000     0.000000     0.000000
   O16            0.000000     0.000000     0.000000
   O17            0.000000     0.000000     0.000000
   O18            0.000000     0.000000     0.000000
   O19            0.000000     0.000000     0.000000
   O20            0.000000     0.000000     0.000000
   O21            0.000000     0.000000     0.000000
   O22            0.000000     0.000000     0.000000
   O23            0.000000     0.000000     0.000000
   O24            0.000000     0.000000     0.000000
   O25            0.000000     0.000000     0.000000
   O26            0.000000     0.000000     0.000000
   O27            0.000000     0.000000     0.000000
   O28            0.000000     0.000000     0.000000
   O29            0.000000     0.000000     0.000000
   O30            0.000000     0.000000     0.000000
   O31            0.000000     0.000000     0.000000
   O32            0.000000     0.000000     0.000000
   O33            0.000000     0.000000     0.000000
   O34            0.000000     0.000000     0.000000
   O35            0.000000     0.000000     0.000000
   O36            0.000000     0.000000     0.000000
   O37            0.000000     0.000000     0.000000
   O38            0.000000     0.000000     0.000000
   O39            0.000000     0.000000     0.000000
   O40            0.000000     0.000000     0.000000
   O41            0.000000     0.000000     0.000000
   O42            0.000000     0.000000     0.000000
   O43            0.000000     0.000000     0.000000
   O44            0.000000     0.000000     0.000000
   O45            0.000000     0.000000     0.000000
   O46            0.000000     0.000000     0.000000
   O47            0.000000     0.000000     0.000000
   O48            0.000000     0.000000     0.000000
   O49            0.000000     0.000000     0.000000
   O50            0.000000     0.000000     0.000000
   O51            0.000000     0.000000     0.000000
   O52            0.000000     0.000000     0.000000
   O53            0.177123    -0.221679     0.935680
   O54            0.000000     0.000000     0.000000
   O55            0.000000     0.000000     0.000000
   O56            0.000000     0.000000     0.000000
   O57            0.000000     0.000000     0.000000
   O58            0.000000     0.000000     0.000000
   O59           -0.221128     0.178887    -0.936153
   O60            0.000000     0.000000     0.000000
   O61            0.000000     0.000000     0.000000
   O62            0.000000     0.000000     0.000000
   O63            0.000000     0.000000     0.000000
   O64            0.000000     0.000000     0.000000
   O65            0.000000     0.000000     0.000000
   O66            0.000000     0.000000     0.000000
   O67            0.000000     0.000000     0.000000
   O68            0.000000     0.000000     0.000000
   O69            0.000000     0.000000     0.000000
   O70            0.000000     0.000000     0.000000
   O71            0.000000     0.000000     0.000000
   O72            0.000000     0.000000     0.000000
   O73            0.000000     0.000000     0.000000
   O74            0.000000     0.000000     0.000000
   O75            0.000000     0.000000     0.000000
   O76            0.000000     0.000000     0.000000
   O77            0.000000     0.000000     0.000000
   O78            0.000000     0.000000     0.000000
   O79            0.000000     0.000000     0.000000
   O80            0.000000     0.000000     0.000000
   O81            0.000000     0.000000     0.000000
   O82            0.000000     0.000000     0.000000
   O83            0.000000     0.000000     0.000000
   O84            0.000000     0.000000     0.000000
   O85            0.000000     0.000000     0.000000
   O86            0.000000     0.000000     0.000000
   O87            0.000000     0.000000     0.000000
   O88            0.000000     0.000000     0.000000
   O89            0.000000     0.000000     0.000000
   O90            0.000000     0.000000     0.000000
   O91            0.000000     0.000000     0.000000
   O92            0.000000     0.000000     0.000000
   O93            0.000000     0.000000     0.000000
   O94            0.000000     0.000000     0.000000
   O95            0.000000     0.000000     0.000000
   Ho1            0.000000     0.000000     0.000000
